23728018_1295_985
     RDKit          3D

 33 34  0  0  0  0  0  0  0  0999 V2000
   45.9359   45.0316  112.8068 C   0  0  0  0  0  0  0  0  0  0  0  0
   46.9508   45.4185  112.5715 H   0  0  0  0  0  0  0  0  0  0  0  0
   46.0197   44.0425  113.3053 H   0  0  0  0  0  0  0  0  0  0  0  0
   45.4086   45.7457  113.4744 H   0  0  0  0  0  0  0  0  0  0  0  0
   45.1360   44.8690  111.5580 C   0  0  0  0  0  0  0  0  0  0  0  0
   45.7054   45.2302  110.3196 C   0  0  0  0  0  0  0  0  0  0  0  0
   46.7095   45.6202  110.2669 H   0  0  0  0  0  0  0  0  0  0  0  0
   44.9427   45.0710  109.1566 C   0  0  0  0  0  0  0  0  0  0  0  0
   45.3646   45.3458  108.2004 H   0  0  0  0  0  0  0  0  0  0  0  0
   43.6335   44.5674  109.2635 C   0  0  0  0  0  0  0  0  0  0  0  0
   42.7924   44.3819  108.0553 C   0  0  0  0  0  0  0  0  0  0  0  0
   41.6612   43.9218  108.1819 O   0  0  0  0  0  0  0  0  0  0  0  0
   43.3124   44.7336  106.8547 N   0  0  0  0  0  0  0  0  0  0  0  0
   44.2370   45.0971  106.7888 H   0  0  0  0  0  0  0  0  0  0  0  0
   42.6042   44.6728  105.6011 C   0  0  0  0  0  0  0  0  0  0  0  0
   41.8036   43.9068  105.6923 H   0  0  0  0  0  0  0  0  0  0  0  0
   42.1004   45.6371  105.3656 H   0  0  0  0  0  0  0  0  0  0  0  0
   43.5066   44.3102  104.5087 C   0  0  0  0  0  0  0  0  0  0  0  0
   44.2953   43.9831  103.6393 C   0  0  0  0  0  0  0  0  0  0  0  0
   45.2397   43.6012  102.6320 C   0  0  0  0  0  0  0  0  0  0  0  0
   45.9091   42.3737  102.7313 C   0  0  0  0  0  0  0  0  0  0  0  0
   45.7186   41.7118  103.5639 H   0  0  0  0  0  0  0  0  0  0  0  0
   46.8319   41.9997  101.7462 C   0  0  0  0  0  0  0  0  0  0  0  0
   47.3481   41.0540  101.8219 H   0  0  0  0  0  0  0  0  0  0  0  0
   47.0855   42.8513  100.6632 C   0  0  0  0  0  0  0  0  0  0  0  0
   47.7972   42.5621   99.9041 H   0  0  0  0  0  0  0  0  0  0  0  0
   46.4163   44.0781  100.5649 C   0  0  0  0  0  0  0  0  0  0  0  0
   46.6121   44.7345   99.7300 H   0  0  0  0  0  0  0  0  0  0  0  0
   45.4931   44.4542  101.5489 C   0  0  0  0  0  0  0  0  0  0  0  0
   44.9806   45.4020  101.4669 H   0  0  0  0  0  0  0  0  0  0  0  0
   43.1650   44.2331  110.5492 C   0  0  0  0  0  0  0  0  0  0  0  0
   42.1703   43.8276  110.6821 H   0  0  0  0  0  0  0  0  0  0  0  0
   43.9010   44.3853  111.6461 N   0  0  0  0  0  0  0  0  0  0  0  0
  1  2  1  0
  1  3  1  0
  1  4  1  0
  1  5  1  0
  5  6  2  0
  5 33  1  0
  6  7  1  0
  6  8  1  0
  8  9  1  0
  8 10  2  0
 10 11  1  0
 10 31  1  0
 11 12  2  0
 11 13  1  0
 13 14  1  0
 13 15  1  0
 15 16  1  0
 15 17  1  0
 15 18  1  0
 18 19  3  0
 19 20  1  0
 20 21  2  0
 20 29  1  0
 21 22  1  0
 21 23  1  0
 23 24  1  0
 23 25  2  0
 25 26  1  0
 25 27  1  0
 27 28  1  0
 27 29  2  0
 29 30  1  0
 31 32  1  0
 31 33  2  0
M  END
> <intraLJ>
22.062    

> <intraEL>
-5.145    

> <intraDihe>
0.685     

> <interLJ>
0.000     

> <interEJ>
0.000     

> <gridLJ>
5.171     

> <gridEL>
0.000     

> <totalE>
22.773    

> <LGFE>
5.171   

> <LE>
0.272   

> <SMILES>
Cc1ccc(C(=O)NCC#Cc2ccccc2)cn1

> <atom.dprop.GFE>
-0.2115 0.0000 0.0000 0.0000 0.8688 -0.0940 0.0000 -0.0957 0.0000 -0.0957 0.0000 0.5240 4.0700 0.0000 -0.2091 0.0000 0.0000 -0.2135 -0.2135 -0.1067 -0.1067 0.0000 -0.1049 0.0000 -0.1024 0.0000 -0.1024 0.0000 -0.1049 0.0000 1.0183 0.0000 0.4510

> <atom.prop.CLASS>
PRPC NCLA NCLA NCLA GEHC BENC NCLA BENC NCLA BENC NCLA GENA GEND NCLA PRPC NCLA NCLA PRPC PRPC BENC BENC NCLA BENC NCLA BENC NCLA BENC NCLA BENC NCLA GEHC NCLA GENA

> <cluster_id>
1

> <rmsd_to_cluster_rep>
0.00    

> <ligRMSD>
123.84  

> <ligCOMD>
123.63  

$$$$
