24065064_1484_369
     RDKit          3D

 38 39  0  0  0  0  0  0  0  0999 V2000
   44.8494   43.5393  113.6091 C   0  0  0  0  0  0  0  0  0  0  0  0
   45.9178   43.2598  113.7331 H   0  0  0  0  0  0  0  0  0  0  0  0
   44.2025   42.6972  113.9349 H   0  0  0  0  0  0  0  0  0  0  0  0
   44.6262   44.4418  114.2169 H   0  0  0  0  0  0  0  0  0  0  0  0
   44.5510   43.8428  112.1795 C   0  0  0  0  0  0  0  0  0  0  0  0
   45.5808   43.7427  111.2210 C   0  0  0  0  0  0  0  0  0  0  0  0
   46.5777   43.4507  111.5109 H   0  0  0  0  0  0  0  0  0  0  0  0
   45.2847   44.0269  109.8830 C   0  0  0  0  0  0  0  0  0  0  0  0
   46.0634   43.9570  109.1370 H   0  0  0  0  0  0  0  0  0  0  0  0
   43.9758   44.4098  109.5444 C   0  0  0  0  0  0  0  0  0  0  0  0
   43.6176   44.7172  108.1427 C   0  0  0  0  0  0  0  0  0  0  0  0
   42.4482   44.9852  107.8758 O   0  0  0  0  0  0  0  0  0  0  0  0
   44.6200   44.6961  107.2276 N   0  0  0  0  0  0  0  0  0  0  0  0
   45.5535   44.5294  107.5298 H   0  0  0  0  0  0  0  0  0  0  0  0
   44.5166   44.9371  105.8311 C   0  0  0  0  0  0  0  0  0  0  0  0
   43.8021   46.0748  105.4257 C   0  0  0  0  0  0  0  0  0  0  0  0
   43.3459   46.7166  106.1649 H   0  0  0  0  0  0  0  0  0  0  0  0
   43.6567   46.3701  104.0647 C   0  0  0  0  0  0  0  0  0  0  0  0
   43.0931   47.2387  103.7575 H   0  0  0  0  0  0  0  0  0  0  0  0
   44.2367   45.5367  103.0999 C   0  0  0  0  0  0  0  0  0  0  0  0
   44.1168   45.7737  102.0521 H   0  0  0  0  0  0  0  0  0  0  0  0
   44.9873   44.4206  103.5000 C   0  0  0  0  0  0  0  0  0  0  0  0
   45.6014   43.5229  102.4879 C   0  0  0  0  0  0  0  0  0  0  0  0
   46.8183   43.3694  102.5669 O   0  0  0  0  0  0  0  0  0  0  0  0
   44.8163   42.9186  101.5384 N   0  0  0  0  0  0  0  0  0  0  0  0
   45.4237   42.1629  100.4564 C   0  0  0  0  0  0  0  0  0  0  0  0
   44.9471   42.5078   99.5140 H   0  0  0  0  0  0  0  0  0  0  0  0
   45.2004   41.0904  100.6387 H   0  0  0  0  0  0  0  0  0  0  0  0
   46.5214   42.3365  100.4134 H   0  0  0  0  0  0  0  0  0  0  0  0
   43.3636   42.9409  101.5513 C   0  0  0  0  0  0  0  0  0  0  0  0
   43.0198   41.9297  101.2461 H   0  0  0  0  0  0  0  0  0  0  0  0
   43.0386   43.7054  100.8143 H   0  0  0  0  0  0  0  0  0  0  0  0
   42.9844   43.1717  102.5698 H   0  0  0  0  0  0  0  0  0  0  0  0
   45.1175   44.1213  104.8635 C   0  0  0  0  0  0  0  0  0  0  0  0
   45.6941   43.2604  105.1682 H   0  0  0  0  0  0  0  0  0  0  0  0
   43.0223   44.4769  110.5786 C   0  0  0  0  0  0  0  0  0  0  0  0
   41.9976   44.7532  110.3656 H   0  0  0  0  0  0  0  0  0  0  0  0
   43.3152   44.1998  111.8449 N   0  0  0  0  0  0  0  0  0  0  0  0
  1  2  1  0
  1  3  1  0
  1  4  1  0
  1  5  1  0
  5  6  2  0
  5 38  1  0
  6  7  1  0
  6  8  1  0
  8  9  1  0
  8 10  2  0
 10 11  1  0
 10 36  1  0
 11 12  2  0
 11 13  1  0
 13 14  1  0
 13 15  1  0
 15 16  2  0
 15 34  1  0
 16 17  1  0
 16 18  1  0
 18 19  1  0
 18 20  2  0
 20 21  1  0
 20 22  1  0
 22 23  1  0
 22 34  2  0
 23 24  2  0
 23 25  1  0
 25 26  1  0
 25 30  1  0
 26 27  1  0
 26 28  1  0
 26 29  1  0
 30 31  1  0
 30 32  1  0
 30 33  1  0
 34 35  1  0
 36 37  1  0
 36 38  2  0
M  END
> <intraLJ>
26.674    

> <intraEL>
-5.126    

> <intraDihe>
14.226    

> <interLJ>
0.000     

> <interEJ>
0.000     

> <gridLJ>
7.155     

> <gridEL>
0.000     

> <totalE>
42.929    

> <LGFE>
7.155   

> <LE>
0.341   

> <SMILES>
Cc1ccc(C(=O)Nc2cccc(C(=O)N(C)C)c2)cn1

> <atom.dprop.GFE>
-0.2238 0.0000 0.0000 0.0000 0.8688 -0.0952 0.0000 -0.0940 0.0000 -0.0957 0.0000 0.5240 4.0700 0.0000 -0.1049 -0.1064 0.0000 -0.1070 0.0000 -0.1067 0.0000 -0.1067 0.0000 0.4360 1.3403 -0.1975 0.0000 0.0000 0.0000 -0.2091 0.0000 0.0000 0.0000 -0.1064 0.0000 1.0183 0.0000 0.4510

> <atom.prop.CLASS>
PRPC NCLA NCLA NCLA GEHC BENC NCLA BENC NCLA BENC NCLA GENA GEND NCLA BENC BENC NCLA BENC NCLA BENC NCLA BENC NCLA GENA GEHC PRPC NCLA NCLA NCLA PRPC NCLA NCLA NCLA BENC NCLA GEHC NCLA GENA

> <cluster_id>
1

> <rmsd_to_cluster_rep>
0.00    

> <ligRMSD>
123.34  

> <ligCOMD>
123.13  

$$$$
