30656579_1519_1206
     RDKit          3D

 40 41  0  0  0  0  0  0  0  0999 V2000
   44.2180   43.1286  112.5595 C   0  0  0  0  0  0  0  0  0  0  0  0
   44.7940   42.1859  112.6800 H   0  0  0  0  0  0  0  0  0  0  0  0
   43.1603   42.9603  112.8540 H   0  0  0  0  0  0  0  0  0  0  0  0
   44.6636   43.9229  113.1954 H   0  0  0  0  0  0  0  0  0  0  0  0
   44.2498   43.5828  111.1392 C   0  0  0  0  0  0  0  0  0  0  0  0
   44.9664   42.8273  110.1878 C   0  0  0  0  0  0  0  0  0  0  0  0
   45.4884   41.9289  110.4764 H   0  0  0  0  0  0  0  0  0  0  0  0
   44.9890   43.2658  108.8593 C   0  0  0  0  0  0  0  0  0  0  0  0
   45.5297   42.6965  108.1166 H   0  0  0  0  0  0  0  0  0  0  0  0
   44.2910   44.4366  108.5211 C   0  0  0  0  0  0  0  0  0  0  0  0
   44.2841   44.9306  107.1290 C   0  0  0  0  0  0  0  0  0  0  0  0
   43.7282   45.9970  106.8760 O   0  0  0  0  0  0  0  0  0  0  0  0
   44.8975   44.1622  106.1945 N   0  0  0  0  0  0  0  0  0  0  0  0
   45.2538   43.2684  106.4484 H   0  0  0  0  0  0  0  0  0  0  0  0
   45.0546   44.4682  104.8145 C   0  0  0  0  0  0  0  0  0  0  0  0
   45.4862   45.7609  104.4673 C   0  0  0  0  0  0  0  0  0  0  0  0
   45.6688   46.4958  105.2379 H   0  0  0  0  0  0  0  0  0  0  0  0
   45.6868   46.1178  103.1377 C   0  0  0  0  0  0  0  0  0  0  0  0
   46.0091   47.1183  102.8866 H   0  0  0  0  0  0  0  0  0  0  0  0
   45.4766   45.1770  102.1348 C   0  0  0  0  0  0  0  0  0  0  0  0
   45.6330   45.4484  101.1004 H   0  0  0  0  0  0  0  0  0  0  0  0
   45.0696   43.8810  102.4612 C   0  0  0  0  0  0  0  0  0  0  0  0
   44.9381   43.2152  101.6245 H   0  0  0  0  0  0  0  0  0  0  0  0
   44.8519   43.4805  103.8043 C   0  0  0  0  0  0  0  0  0  0  0  0
   44.3943   42.0207  104.1179 C   0  0  0  0  0  0  0  0  0  0  0  0
   43.0389   42.0283  104.8648 C   0  0  0  0  0  0  0  0  0  0  0  0
   42.6539   40.9890  104.9430 H   0  0  0  0  0  0  0  0  0  0  0  0
   42.2891   42.6316  104.3108 H   0  0  0  0  0  0  0  0  0  0  0  0
   43.1232   42.4199  105.8957 H   0  0  0  0  0  0  0  0  0  0  0  0
   45.4859   41.2977  104.9404 C   0  0  0  0  0  0  0  0  0  0  0  0
   45.1985   40.2334  105.0803 H   0  0  0  0  0  0  0  0  0  0  0  0
   45.6202   41.7382  105.9462 H   0  0  0  0  0  0  0  0  0  0  0  0
   46.4589   41.3227  104.4054 H   0  0  0  0  0  0  0  0  0  0  0  0
   44.1786   41.1851  102.8304 C   0  0  0  0  0  0  0  0  0  0  0  0
   43.8417   40.1616  103.1004 H   0  0  0  0  0  0  0  0  0  0  0  0
   45.1230   41.0880  102.2550 H   0  0  0  0  0  0  0  0  0  0  0  0
   43.3976   41.6409  102.1864 H   0  0  0  0  0  0  0  0  0  0  0  0
   43.6096   45.1178  109.5473 C   0  0  0  0  0  0  0  0  0  0  0  0
   43.0707   46.0323  109.3350 H   0  0  0  0  0  0  0  0  0  0  0  0
   43.6004   44.6942  110.8073 N   0  0  0  0  0  0  0  0  0  0  0  0
  1  2  1  0
  1  3  1  0
  1  4  1  0
  1  5  1  0
  5  6  2  0
  5 40  1  0
  6  7  1  0
  6  8  1  0
  8  9  1  0
  8 10  2  0
 10 11  1  0
 10 38  1  0
 11 12  2  0
 11 13  1  0
 13 14  1  0
 13 15  1  0
 15 16  2  0
 15 24  1  0
 16 17  1  0
 16 18  1  0
 18 19  1  0
 18 20  2  0
 20 21  1  0
 20 22  1  0
 22 23  1  0
 22 24  2  0
 24 25  1  0
 25 26  1  0
 25 30  1  0
 25 34  1  0
 26 27  1  0
 26 28  1  0
 26 29  1  0
 30 31  1  0
 30 32  1  0
 30 33  1  0
 34 35  1  0
 34 36  1  0
 34 37  1  0
 38 39  1  0
 38 40  2  0
M  END
> <intraLJ>
27.288    

> <intraEL>
-5.736    

> <intraDihe>
5.010     

> <interLJ>
0.000     

> <interEJ>
0.000     

> <gridLJ>
5.355     

> <gridEL>
0.000     

> <totalE>
31.916    

> <LGFE>
5.355   

> <LE>
0.268   

> <SMILES>
Cc1ccc(C(=O)Nc2ccccc2C(C)(C)C)cn1

> <atom.dprop.GFE>
-0.2115 0.0000 0.0000 0.0000 1.0183 -0.0940 0.0000 -0.0957 0.0000 -0.0989 0.0000 0.4890 4.1500 0.0000 -0.1064 -0.1070 0.0000 -0.1067 0.0000 -0.1049 0.0000 -0.1049 0.0000 -0.1070 -0.2135 -0.2121 0.0000 0.0000 0.0000 -0.2121 0.0000 0.0000 0.0000 -0.2128 0.0000 0.0000 0.0000 1.1742 0.0000 0.5110

> <atom.prop.CLASS>
PRPC NCLA NCLA NCLA GEHC BENC NCLA BENC NCLA BENC NCLA GENA GEND NCLA BENC BENC NCLA BENC NCLA BENC NCLA BENC NCLA BENC PRPC PRPC NCLA NCLA NCLA PRPC NCLA NCLA NCLA PRPC NCLA NCLA NCLA GEHC NCLA GENA

> <cluster_id>
1

> <rmsd_to_cluster_rep>
0.00    

> <ligRMSD>
123.13  

> <ligCOMD>
122.98  

$$$$
