31878068_1396_74
     RDKit          3D

 33 34  0  0  0  0  0  0  0  0999 V2000
   45.1678   44.8024  113.5512 C   0  0  0  0  0  0  0  0  0  0  0  0
   45.3110   45.9003  113.6474 H   0  0  0  0  0  0  0  0  0  0  0  0
   46.0639   44.2731  113.9394 H   0  0  0  0  0  0  0  0  0  0  0  0
   44.2692   44.4911  114.1250 H   0  0  0  0  0  0  0  0  0  0  0  0
   44.9742   44.4237  112.1210 C   0  0  0  0  0  0  0  0  0  0  0  0
   45.0043   45.4256  111.1289 C   0  0  0  0  0  0  0  0  0  0  0  0
   45.1623   46.4592  111.3933 H   0  0  0  0  0  0  0  0  0  0  0  0
   44.8222   45.0534  109.7913 C   0  0  0  0  0  0  0  0  0  0  0  0
   44.8443   45.8076  109.0177 H   0  0  0  0  0  0  0  0  0  0  0  0
   44.6325   43.6950  109.4829 C   0  0  0  0  0  0  0  0  0  0  0  0
   44.4262   43.2538  108.0836 C   0  0  0  0  0  0  0  0  0  0  0  0
   44.2244   42.0655  107.8484 O   0  0  0  0  0  0  0  0  0  0  0  0
   44.4773   44.1968  107.1164 N   0  0  0  0  0  0  0  0  0  0  0  0
   44.6375   45.1528  107.3458 H   0  0  0  0  0  0  0  0  0  0  0  0
   44.5083   43.9044  105.7060 C   0  0  0  0  0  0  0  0  0  0  0  0
   45.3548   43.2301  105.4458 H   0  0  0  0  0  0  0  0  0  0  0  0
   43.5693   43.3674  105.4435 H   0  0  0  0  0  0  0  0  0  0  0  0
   44.5911   45.1927  104.8689 C   0  0  0  0  0  0  0  0  0  0  0  0
   45.4968   45.7700  105.1550 H   0  0  0  0  0  0  0  0  0  0  0  0
   43.7035   45.8190  105.1132 H   0  0  0  0  0  0  0  0  0  0  0  0
   44.6116   44.9296  103.3844 C   0  0  0  0  0  0  0  0  0  0  0  0
   45.6157   45.2415  102.5011 C   0  0  0  0  0  0  0  0  0  0  0  0
   46.5809   45.6932  102.6918 H   0  0  0  0  0  0  0  0  0  0  0  0
   45.1508   44.7986  100.9220 S   0  0  0  0  0  0  0  0  0  0  0  0
   43.6523   44.2404  101.4981 C   0  0  0  0  0  0  0  0  0  0  0  0
   42.6410   43.6527  100.5546 C   0  0  0  0  0  0  0  0  0  0  0  0
   41.7242   43.3427  101.1008 H   0  0  0  0  0  0  0  0  0  0  0  0
   43.0722   42.7634  100.0469 H   0  0  0  0  0  0  0  0  0  0  0  0
   42.3622   44.4039   99.7851 H   0  0  0  0  0  0  0  0  0  0  0  0
   43.4608   44.3590  102.8063 N   0  0  0  0  0  0  0  0  0  0  0  0
   44.6078   42.7761  110.5504 C   0  0  0  0  0  0  0  0  0  0  0  0
   44.4403   41.7226  110.3643 H   0  0  0  0  0  0  0  0  0  0  0  0
   44.7764   43.1445  111.8168 N   0  0  0  0  0  0  0  0  0  0  0  0
  1  2  1  0
  1  3  1  0
  1  4  1  0
  1  5  1  0
  5  6  2  0
  5 33  1  0
  6  7  1  0
  6  8  1  0
  8  9  1  0
  8 10  2  0
 10 11  1  0
 10 31  1  0
 11 12  2  0
 11 13  1  0
 13 14  1  0
 13 15  1  0
 15 16  1  0
 15 17  1  0
 15 18  1  0
 18 19  1  0
 18 20  1  0
 18 21  1  0
 21 22  2  0
 21 30  1  0
 22 23  1  0
 22 24  1  0
 24 25  1  0
 25 26  1  0
 25 30  2  0
 26 27  1  0
 26 28  1  0
 26 29  1  0
 31 32  1  0
 31 33  2  0
M  END
> <intraLJ>
11.940    

> <intraEL>
-7.834    

> <intraDihe>
1.917     

> <interLJ>
0.000     

> <interEJ>
0.000     

> <gridLJ>
10.109    

> <gridEL>
0.000     

> <totalE>
16.132    

> <LGFE>
10.109  

> <LE>
0.562   

> <SMILES>
Cc1ccc(C(=O)NCCc2csc(C)n2)cn1

> <atom.dprop.GFE>
-0.2238 0.0000 0.0000 0.0000 0.8688 -0.0952 0.0000 -0.0940 0.0000 -0.0957 0.0000 0.5240 4.0700 0.0000 -0.2091 0.0000 0.0000 -0.2121 0.0000 0.0000 1.3836 1.3550 0.0000 -0.2041 1.3403 -0.2041 0.0000 0.0000 0.0000 0.4360 1.0183 0.0000 0.4510

> <atom.prop.CLASS>
PRPC NCLA NCLA NCLA GEHC BENC NCLA BENC NCLA BENC NCLA GENA GEND NCLA PRPC NCLA NCLA PRPC NCLA NCLA GEHC GEHC NCLA PRPC GEHC PRPC NCLA NCLA NCLA GENA GEHC NCLA GENA

> <cluster_id>
1

> <rmsd_to_cluster_rep>
0.00    

> <ligRMSD>
124.18  

> <ligCOMD>
124.02  

$$$$
