31919176_1885_287
     RDKit          3D

 36 37  0  0  0  0  0  0  0  0999 V2000
   46.0433   44.2897  112.2063 C   0  0  0  0  0  0  0  0  0  0  0  0
   47.1319   44.5098  112.2483 H   0  0  0  0  0  0  0  0  0  0  0  0
   45.8307   43.3484  112.7563 H   0  0  0  0  0  0  0  0  0  0  0  0
   45.4746   45.1281  112.6618 H   0  0  0  0  0  0  0  0  0  0  0  0
   45.5965   44.1254  110.7919 C   0  0  0  0  0  0  0  0  0  0  0  0
   46.5369   44.2621  109.7495 C   0  0  0  0  0  0  0  0  0  0  0  0
   47.5719   44.4754  109.9643 H   0  0  0  0  0  0  0  0  0  0  0  0
   46.0983   44.1246  108.4270 C   0  0  0  0  0  0  0  0  0  0  0  0
   46.7992   44.2305  107.6114 H   0  0  0  0  0  0  0  0  0  0  0  0
   44.7416   43.8557  108.1884 C   0  0  0  0  0  0  0  0  0  0  0  0
   44.2317   43.7019  106.8065 C   0  0  0  0  0  0  0  0  0  0  0  0
   43.7860   42.5985  106.5075 O   0  0  0  0  0  0  0  0  0  0  0  0
   44.2684   44.7720  105.9497 N   0  0  0  0  0  0  0  0  0  0  0  0
   44.5610   46.1062  106.4392 C   0  0  0  0  0  0  0  0  0  0  0  0
   45.5042   46.4391  105.9568 H   0  0  0  0  0  0  0  0  0  0  0  0
   44.6647   46.1114  107.5464 H   0  0  0  0  0  0  0  0  0  0  0  0
   43.7137   46.7555  106.1315 H   0  0  0  0  0  0  0  0  0  0  0  0
   44.0791   44.6603  104.5024 C   0  0  0  0  0  0  0  0  0  0  0  0
   43.0015   44.4658  104.3051 H   0  0  0  0  0  0  0  0  0  0  0  0
   44.3058   45.6439  104.0349 H   0  0  0  0  0  0  0  0  0  0  0  0
   44.9331   43.6231  103.8119 C   0  0  0  0  0  0  0  0  0  0  0  0
   46.2917   43.7423  103.4954 C   0  0  0  0  0  0  0  0  0  0  0  0
   47.2110   44.8735  103.8542 C   0  0  0  0  0  0  0  0  0  0  0  0
   47.2539   44.9860  104.9585 H   0  0  0  0  0  0  0  0  0  0  0  0
   46.8365   45.8206  103.4121 H   0  0  0  0  0  0  0  0  0  0  0  0
   48.2395   44.6876  103.4753 H   0  0  0  0  0  0  0  0  0  0  0  0
   46.7434   42.6993  102.8151 N   0  0  0  0  0  0  0  0  0  0  0  0
   45.6396   41.8557  102.6596 O   0  0  0  0  0  0  0  0  0  0  0  0
   44.5703   42.4385  103.2656 C   0  0  0  0  0  0  0  0  0  0  0  0
   43.2846   41.6623  103.1829 C   0  0  0  0  0  0  0  0  0  0  0  0
   42.4844   42.1581  103.7695 H   0  0  0  0  0  0  0  0  0  0  0  0
   43.4360   40.6383  103.5862 H   0  0  0  0  0  0  0  0  0  0  0  0
   42.9569   41.5873  102.1240 H   0  0  0  0  0  0  0  0  0  0  0  0
   43.8883   43.7005  109.2955 C   0  0  0  0  0  0  0  0  0  0  0  0
   42.8369   43.4882  109.1491 H   0  0  0  0  0  0  0  0  0  0  0  0
   44.3171   43.8561  110.5454 N   0  0  0  0  0  0  0  0  0  0  0  0
  1  2  1  0
  1  3  1  0
  1  4  1  0
  1  5  1  0
  5  6  2  0
  5 36  1  0
  6  7  1  0
  6  8  1  0
  8  9  1  0
  8 10  2  0
 10 11  1  0
 10 34  1  0
 11 12  2  0
 11 13  1  0
 13 14  1  0
 13 18  1  0
 14 15  1  0
 14 16  1  0
 14 17  1  0
 18 19  1  0
 18 20  1  0
 18 21  1  0
 21 22  1  0
 21 29  2  0
 22 23  1  0
 22 27  2  0
 23 24  1  0
 23 25  1  0
 23 26  1  0
 27 28  1  0
 28 29  1  0
 29 30  1  0
 30 31  1  0
 30 32  1  0
 30 33  1  0
 34 35  1  0
 34 36  2  0
M  END
> <intraLJ>
14.354    

> <intraEL>
-9.214    

> <intraDihe>
16.932    

> <interLJ>
0.000     

> <interEJ>
0.000     

> <gridLJ>
8.344     

> <gridEL>
0.000     

> <totalE>
30.417    

> <LGFE>
8.344   

> <LE>
0.439   

> <SMILES>
Cc1ccc(C(=O)N(C)Cc2c(C)noc2C)cn1

> <atom.dprop.GFE>
-0.1985 0.0000 0.0000 0.0000 1.0183 -0.0940 0.0000 -0.0989 0.0000 -0.0989 0.0000 0.4600 1.3929 -0.2091 0.0000 0.0000 0.0000 -0.2135 0.0000 0.0000 1.3899 1.3836 -0.2135 0.0000 0.0000 0.0000 0.4360 0.4360 1.3836 -0.2128 0.0000 0.0000 0.0000 1.2721 0.0000 0.5110

> <atom.prop.CLASS>
PRPC NCLA NCLA NCLA GEHC BENC NCLA BENC NCLA BENC NCLA GENA GEHC PRPC NCLA NCLA NCLA PRPC NCLA NCLA GEHC GEHC PRPC NCLA NCLA NCLA GENA GENA GEHC PRPC NCLA NCLA NCLA GEHC NCLA GENA

> <cluster_id>
1

> <rmsd_to_cluster_rep>
0.00    

> <ligRMSD>
123.73  

> <ligCOMD>
123.65  

$$$$
