31981950_836_238
     RDKit          3D

 41 42  0  0  0  0  0  0  0  0999 V2000
   47.5223   43.9845  112.7751 C   0  0  0  0  0  0  0  0  0  0  0  0
   48.3693   43.7945  112.0822 H   0  0  0  0  0  0  0  0  0  0  0  0
   47.5449   43.2211  113.5833 H   0  0  0  0  0  0  0  0  0  0  0  0
   47.6558   44.9873  113.2363 H   0  0  0  0  0  0  0  0  0  0  0  0
   46.2130   43.9242  112.0543 C   0  0  0  0  0  0  0  0  0  0  0  0
   45.1685   44.0737  112.6830 O   0  0  0  0  0  0  0  0  0  0  0  0
   46.2537   43.6948  110.7175 N   0  0  0  0  0  0  0  0  0  0  0  0
   47.1294   43.5811  110.2570 H   0  0  0  0  0  0  0  0  0  0  0  0
   45.1000   43.5708  109.8553 C   0  0  0  0  0  0  0  0  0  0  0  0
   44.4228   42.7548  110.1952 H   0  0  0  0  0  0  0  0  0  0  0  0
   44.5216   44.5198  109.9001 H   0  0  0  0  0  0  0  0  0  0  0  0
   45.4934   43.3046  108.3826 C   0  0  0  0  0  0  0  0  0  0  0  0
   46.1116   42.3760  108.3707 H   0  0  0  0  0  0  0  0  0  0  0  0
   44.2630   43.0429  107.4877 C   0  0  0  0  0  0  0  0  0  0  0  0
   43.5923   43.9292  107.5287 H   0  0  0  0  0  0  0  0  0  0  0  0
   43.7016   42.1645  107.8721 H   0  0  0  0  0  0  0  0  0  0  0  0
   44.6624   42.7934  106.0236 C   0  0  0  0  0  0  0  0  0  0  0  0
   43.7279   42.6358  105.4422 H   0  0  0  0  0  0  0  0  0  0  0  0
   45.2677   41.8635  105.9570 H   0  0  0  0  0  0  0  0  0  0  0  0
   45.4634   43.9259  105.5458 N   0  0  0  0  0  0  0  0  0  0  0  0
   45.1502   44.7055  104.4663 C   0  0  0  0  0  0  0  0  0  0  0  0
   45.8936   45.5676  104.0045 O   0  0  0  0  0  0  0  0  0  0  0  0
   43.8390   44.5492  103.8032 C   0  0  0  0  0  0  0  0  0  0  0  0
   42.6455   44.7976  104.4964 C   0  0  0  0  0  0  0  0  0  0  0  0
   42.6541   45.0950  105.5352 H   0  0  0  0  0  0  0  0  0  0  0  0
   41.4291   44.6324  103.8222 C   0  0  0  0  0  0  0  0  0  0  0  0
   40.4936   44.8044  104.3302 H   0  0  0  0  0  0  0  0  0  0  0  0
   41.4536   44.2402  102.4669 C   0  0  0  0  0  0  0  0  0  0  0  0
   40.1660   44.0574  101.7348 C   0  0  0  0  0  0  0  0  0  0  0  0
   39.3040   44.2648  102.4049 H   0  0  0  0  0  0  0  0  0  0  0  0
   40.1118   43.0097  101.3697 H   0  0  0  0  0  0  0  0  0  0  0  0
   40.1464   44.7576  100.8728 H   0  0  0  0  0  0  0  0  0  0  0  0
   42.5975   44.0278  101.8212 N   0  0  0  0  0  0  0  0  0  0  0  0
   43.7605   44.1797  102.4487 C   0  0  0  0  0  0  0  0  0  0  0  0
   44.6634   43.9941  101.8811 H   0  0  0  0  0  0  0  0  0  0  0  0
   46.6942   44.1698  106.3032 C   0  0  0  0  0  0  0  0  0  0  0  0
   47.3394   43.2660  106.2407 H   0  0  0  0  0  0  0  0  0  0  0  0
   47.2836   45.0292  105.9098 H   0  0  0  0  0  0  0  0  0  0  0  0
   46.3507   44.4387  107.7773 C   0  0  0  0  0  0  0  0  0  0  0  0
   47.2950   44.5535  108.3507 H   0  0  0  0  0  0  0  0  0  0  0  0
   45.7841   45.3933  107.8430 H   0  0  0  0  0  0  0  0  0  0  0  0
  1  2  1  0
  1  3  1  0
  1  4  1  0
  1  5  1  0
  5  6  2  0
  5  7  1  0
  7  8  1  0
  7  9  1  0
  9 10  1  0
  9 11  1  0
  9 12  1  0
 12 13  1  0
 12 14  1  0
 12 39  1  0
 14 15  1  0
 14 16  1  0
 14 17  1  0
 17 18  1  0
 17 19  1  0
 17 20  1  0
 20 21  1  0
 20 36  1  0
 21 22  2  0
 21 23  1  0
 23 24  2  0
 23 34  1  0
 24 25  1  0
 24 26  1  0
 26 27  1  0
 26 28  2  0
 28 29  1  0
 28 33  1  0
 29 30  1  0
 29 31  1  0
 29 32  1  0
 33 34  2  0
 34 35  1  0
 36 37  1  0
 36 38  1  0
 36 39  1  0
 39 40  1  0
 39 41  1  0
M  END
> <intraLJ>
10.937    

> <intraEL>
-9.233    

> <intraDihe>
19.790    

> <interLJ>
0.000     

> <interEJ>
0.000     

> <gridLJ>
6.436     

> <gridEL>
0.000     

> <totalE>
27.931    

> <LGFE>
6.436   

> <LE>
0.322   

> <SMILES>
CC(=O)NCC1CCN(C(=O)c2ccc(C)nc2)CC1

> <atom.dprop.GFE>
-0.2115 0.0000 0.0000 0.0000 0.0000 0.3650 3.0270 0.0000 -0.1875 0.0000 0.0000 -0.1971 0.0000 -0.2041 0.0000 0.0000 -0.2091 0.0000 0.0000 1.3929 0.0000 0.4280 -0.1070 -0.1070 0.0000 -0.1070 0.0000 1.3550 -0.2091 0.0000 0.0000 0.0000 0.4590 1.3550 0.0000 -0.2091 0.0000 0.0000 -0.1971 0.0000 0.0000

> <atom.prop.CLASS>
PRPC NCLA NCLA NCLA NCLA GENA GEND NCLA PRPC NCLA NCLA PRPC NCLA PRPC NCLA NCLA PRPC NCLA NCLA GEHC NCLA GENA BENC BENC NCLA BENC NCLA GEHC PRPC NCLA NCLA NCLA GENA GEHC NCLA PRPC NCLA NCLA PRPC NCLA NCLA

> <cluster_id>
1

> <rmsd_to_cluster_rep>
0.00    

> <ligRMSD>
123.74  

> <ligCOMD>
123.66  

$$$$
