49139618_3223_532
     RDKit          3D

 37 38  0  0  0  0  0  0  0  0999 V2000
   43.4102   42.9998  101.3570 C   0  0  0  0  0  0  0  0  0  0  0  0
   42.3789   42.7819  101.0066 H   0  0  0  0  0  0  0  0  0  0  0  0
   44.1328   42.5235  100.6601 H   0  0  0  0  0  0  0  0  0  0  0  0
   43.5604   44.1006  101.3515 H   0  0  0  0  0  0  0  0  0  0  0  0
   43.5726   42.4740  102.6669 O   0  0  0  0  0  0  0  0  0  0  0  0
   44.8859   42.6794  103.1669 C   0  0  0  0  0  0  0  0  0  0  0  0
   45.0216   42.0457  104.0707 H   0  0  0  0  0  0  0  0  0  0  0  0
   45.6282   42.3534  102.4098 H   0  0  0  0  0  0  0  0  0  0  0  0
   45.0914   44.1156  103.5842 C   0  0  0  0  0  0  0  0  0  0  0  0
   46.0294   44.8721  102.8612 C   0  0  0  0  0  0  0  0  0  0  0  0
   46.5651   44.4175  102.0404 H   0  0  0  0  0  0  0  0  0  0  0  0
   46.2769   46.2071  103.1937 C   0  0  0  0  0  0  0  0  0  0  0  0
   46.9985   46.7799  102.6298 H   0  0  0  0  0  0  0  0  0  0  0  0
   45.5880   46.8008  104.2553 C   0  0  0  0  0  0  0  0  0  0  0  0
   45.7747   47.8336  104.5110 H   0  0  0  0  0  0  0  0  0  0  0  0
   44.6569   46.0585  104.9856 C   0  0  0  0  0  0  0  0  0  0  0  0
   44.1245   46.5290  105.7996 H   0  0  0  0  0  0  0  0  0  0  0  0
   44.4019   44.7167  104.6658 C   0  0  0  0  0  0  0  0  0  0  0  0
   43.3590   43.9794  105.4652 C   0  0  0  0  0  0  0  0  0  0  0  0
   43.3049   42.9124  105.1525 H   0  0  0  0  0  0  0  0  0  0  0  0
   42.3743   44.4469  105.2471 H   0  0  0  0  0  0  0  0  0  0  0  0
   43.6295   44.0794  106.8745 O   0  0  0  0  0  0  0  0  0  0  0  0
   44.5454   43.2511  107.3805 C   0  0  0  0  0  0  0  0  0  0  0  0
   45.1668   42.4077  106.7586 O   0  0  0  0  0  0  0  0  0  0  0  0
   44.7505   43.4692  108.8429 C   0  0  0  0  0  0  0  0  0  0  0  0
   44.0022   44.4417  109.5275 C   0  0  0  0  0  0  0  0  0  0  0  0
   43.2810   45.0521  109.0045 H   0  0  0  0  0  0  0  0  0  0  0  0
   44.2094   44.6209  110.9006 C   0  0  0  0  0  0  0  0  0  0  0  0
   43.6521   45.3648  111.4475 H   0  0  0  0  0  0  0  0  0  0  0  0
   45.1600   43.8072  111.5522 C   0  0  0  0  0  0  0  0  0  0  0  0
   45.3963   43.9832  113.0145 C   0  0  0  0  0  0  0  0  0  0  0  0
   44.7470   44.7890  113.4196 H   0  0  0  0  0  0  0  0  0  0  0  0
   46.4634   44.2486  113.1712 H   0  0  0  0  0  0  0  0  0  0  0  0
   45.1677   43.0251  113.5279 H   0  0  0  0  0  0  0  0  0  0  0  0
   45.8552   42.8824  110.8967 N   0  0  0  0  0  0  0  0  0  0  0  0
   45.6690   42.7073  109.5932 C   0  0  0  0  0  0  0  0  0  0  0  0
   46.2569   41.9402  109.1058 H   0  0  0  0  0  0  0  0  0  0  0  0
  1  2  1  0
  1  3  1  0
  1  4  1  0
  1  5  1  0
  5  6  1  0
  6  7  1  0
  6  8  1  0
  6  9  1  0
  9 10  2  0
  9 18  1  0
 10 11  1  0
 10 12  1  0
 12 13  1  0
 12 14  2  0
 14 15  1  0
 14 16  1  0
 16 17  1  0
 16 18  2  0
 18 19  1  0
 19 20  1  0
 19 21  1  0
 19 22  1  0
 22 23  1  0
 23 24  2  0
 23 25  1  0
 25 26  2  0
 25 36  1  0
 26 27  1  0
 26 28  1  0
 28 29  1  0
 28 30  2  0
 30 31  1  0
 30 35  1  0
 31 32  1  0
 31 33  1  0
 31 34  1  0
 35 36  2  0
 36 37  1  0
M  END
> <intraLJ>
24.785    

> <intraEL>
-0.103    

> <intraDihe>
3.007     

> <interLJ>
0.000     

> <interEJ>
0.000     

> <gridLJ>
2.201     

> <gridEL>
0.000     

> <totalE>
29.889    

> <LGFE>
2.201   

> <LE>
0.110   

> <SMILES>
COCc1ccccc1COC(=O)c1ccc(C)nc1

> <atom.dprop.GFE>
-0.2041 0.0000 0.0000 0.0000 0.4360 -0.2128 0.0000 0.0000 -0.1070 -0.1067 0.0000 -0.1067 0.0000 -0.1070 0.0000 -0.1064 0.0000 -0.1064 -0.2121 0.0000 0.0000 0.4890 0.0000 0.4890 -0.0957 -0.0957 0.0000 -0.0952 0.0000 0.8688 -0.2115 0.0000 0.0000 0.0000 0.5110 1.1742 0.0000

> <atom.prop.CLASS>
PRPC NCLA NCLA NCLA GENA PRPC NCLA NCLA BENC BENC NCLA BENC NCLA BENC NCLA BENC NCLA BENC PRPC NCLA NCLA GENA NCLA GENA BENC BENC NCLA BENC NCLA GEHC PRPC NCLA NCLA NCLA GENA GEHC NCLA

> <cluster_id>
1

> <rmsd_to_cluster_rep>
0.00    

> <ligRMSD>
123.71  

> <ligCOMD>
123.55  

$$$$
