23728018_1295_1240
     RDKit          3D

 33 34  0  0  0  0  0  0  0  0999 V2000
   45.2071   41.4352  130.6796 C   0  0  0  0  0  0  0  0  0  0  0  0
   45.9359   40.6624  130.3531 H   0  0  0  0  0  0  0  0  0  0  0  0
   44.2502   40.9488  130.9655 H   0  0  0  0  0  0  0  0  0  0  0  0
   45.6182   41.9947  131.5467 H   0  0  0  0  0  0  0  0  0  0  0  0
   44.9388   42.4009  129.5746 C   0  0  0  0  0  0  0  0  0  0  0  0
   45.6161   42.2529  128.3467 C   0  0  0  0  0  0  0  0  0  0  0  0
   46.3222   41.4511  128.1993 H   0  0  0  0  0  0  0  0  0  0  0  0
   45.3530   43.1663  127.3191 C   0  0  0  0  0  0  0  0  0  0  0  0
   45.8662   43.0673  126.3732 H   0  0  0  0  0  0  0  0  0  0  0  0
   44.4324   44.2048  127.5491 C   0  0  0  0  0  0  0  0  0  0  0  0
   44.1240   45.1929  126.4860 C   0  0  0  0  0  0  0  0  0  0  0  0
   43.3242   46.0935  126.7237 O   0  0  0  0  0  0  0  0  0  0  0  0
   44.7455   45.0591  125.2897 N   0  0  0  0  0  0  0  0  0  0  0  0
   45.3834   44.3114  125.1298 H   0  0  0  0  0  0  0  0  0  0  0  0
   44.6012   45.9679  124.1806 C   0  0  0  0  0  0  0  0  0  0  0  0
   43.6286   46.4954  124.2893 H   0  0  0  0  0  0  0  0  0  0  0  0
   45.3928   46.7504  124.1838 H   0  0  0  0  0  0  0  0  0  0  0  0
   44.6276   45.2472  122.9082 C   0  0  0  0  0  0  0  0  0  0  0  0
   44.6500   44.6999  121.8197 C   0  0  0  0  0  0  0  0  0  0  0  0
   44.6922   44.0716  120.5329 C   0  0  0  0  0  0  0  0  0  0  0  0
   43.9262   42.9229  120.2908 C   0  0  0  0  0  0  0  0  0  0  0  0
   43.3033   42.5060  121.0691 H   0  0  0  0  0  0  0  0  0  0  0  0
   43.9665   42.3089  119.0325 C   0  0  0  0  0  0  0  0  0  0  0  0
   43.3766   41.4238  118.8451 H   0  0  0  0  0  0  0  0  0  0  0  0
   44.7713   42.8421  118.0174 C   0  0  0  0  0  0  0  0  0  0  0  0
   44.8017   42.3680  117.0475 H   0  0  0  0  0  0  0  0  0  0  0  0
   45.5367   43.9900  118.2603 C   0  0  0  0  0  0  0  0  0  0  0  0
   46.1572   44.4007  117.4776 H   0  0  0  0  0  0  0  0  0  0  0  0
   45.4980   44.6056  119.5179 C   0  0  0  0  0  0  0  0  0  0  0  0
   46.0911   45.4907  119.6983 H   0  0  0  0  0  0  0  0  0  0  0  0
   43.8082   44.2570  128.8108 C   0  0  0  0  0  0  0  0  0  0  0  0
   43.0811   45.0278  129.0315 H   0  0  0  0  0  0  0  0  0  0  0  0
   44.0638   43.3807  129.7777 N   0  0  0  0  0  0  0  0  0  0  0  0
  1  2  1  0
  1  3  1  0
  1  4  1  0
  1  5  1  0
  5  6  2  0
  5 33  1  0
  6  7  1  0
  6  8  1  0
  8  9  1  0
  8 10  2  0
 10 11  1  0
 10 31  1  0
 11 12  2  0
 11 13  1  0
 13 14  1  0
 13 15  1  0
 15 16  1  0
 15 17  1  0
 15 18  1  0
 18 19  3  0
 19 20  1  0
 20 21  2  0
 20 29  1  0
 21 22  1  0
 21 23  1  0
 23 24  1  0
 23 25  2  0
 25 26  1  0
 25 27  1  0
 27 28  1  0
 27 29  2  0
 29 30  1  0
 31 32  1  0
 31 33  2  0
M  END
> <intraLJ>
22.133    

> <intraEL>
-5.135    

> <intraDihe>
0.648     

> <interLJ>
0.000     

> <interEJ>
0.000     

> <gridLJ>
1.082     

> <gridEL>
0.000     

> <totalE>
18.728    

> <LGFE>
1.082   

> <LE>
0.057   

> <SMILES>
Cc1ccc(C(=O)NCC#Cc2ccccc2)cn1

> <atom.dprop.GFE>
0.1618 0.0000 0.0000 0.0000 0.0866 0.1064 0.0000 0.1159 0.0000 0.1064 0.0000 0.2200 0.2480 0.0000 0.1772 0.0000 0.0000 0.1109 0.0373 -0.0489 -0.0489 0.0000 -0.0751 0.0000 -0.0949 0.0000 -0.0949 0.0000 -0.0751 0.0000 0.1056 0.0000 0.0440

> <atom.prop.CLASS>
PRPC NCLA NCLA NCLA GEHC BENC NCLA BENC NCLA BENC NCLA GENA GEND NCLA PRPC NCLA NCLA PRPC PRPC BENC BENC NCLA BENC NCLA BENC NCLA BENC NCLA BENC NCLA GEHC NCLA GENA

> <cluster_id>
1

> <rmsd_to_cluster_rep>
0.00    

> <ligRMSD>
139.43  

> <ligCOMD>
139.24  

$$$$
