24065064_1484_139
     RDKit          3D

 38 39  0  0  0  0  0  0  0  0999 V2000
   45.0547   45.8047  131.6723 C   0  0  0  0  0  0  0  0  0  0  0  0
   45.2781   46.8882  131.5669 H   0  0  0  0  0  0  0  0  0  0  0  0
   45.8666   45.3097  132.2463 H   0  0  0  0  0  0  0  0  0  0  0  0
   44.0864   45.6724  132.2003 H   0  0  0  0  0  0  0  0  0  0  0  0
   44.9576   45.1582  130.3316 C   0  0  0  0  0  0  0  0  0  0  0  0
   45.1511   45.9370  129.1718 C   0  0  0  0  0  0  0  0  0  0  0  0
   45.3670   46.9911  129.2449 H   0  0  0  0  0  0  0  0  0  0  0  0
   45.0607   45.3155  127.9211 C   0  0  0  0  0  0  0  0  0  0  0  0
   45.2042   45.8991  127.0228 H   0  0  0  0  0  0  0  0  0  0  0  0
   44.7721   43.9415  127.8655 C   0  0  0  0  0  0  0  0  0  0  0  0
   44.6694   43.2432  126.5657 C   0  0  0  0  0  0  0  0  0  0  0  0
   44.4477   42.0344  126.5591 O   0  0  0  0  0  0  0  0  0  0  0  0
   44.8163   43.9948  125.4448 N   0  0  0  0  0  0  0  0  0  0  0  0
   44.9338   44.9794  125.5292 H   0  0  0  0  0  0  0  0  0  0  0  0
   44.7774   43.5474  124.0967 C   0  0  0  0  0  0  0  0  0  0  0  0
   45.5082   42.3919  123.7809 C   0  0  0  0  0  0  0  0  0  0  0  0
   46.0812   41.8904  124.5468 H   0  0  0  0  0  0  0  0  0  0  0  0
   45.5182   41.8981  122.4706 C   0  0  0  0  0  0  0  0  0  0  0  0
   46.0943   41.0169  122.2297 H   0  0  0  0  0  0  0  0  0  0  0  0
   44.7859   42.5491  121.4698 C   0  0  0  0  0  0  0  0  0  0  0  0
   44.8020   42.1599  120.4615 H   0  0  0  0  0  0  0  0  0  0  0  0
   44.0199   43.6811  121.7879 C   0  0  0  0  0  0  0  0  0  0  0  0
   43.2447   44.3870  120.7352 C   0  0  0  0  0  0  0  0  0  0  0  0
   42.0435   44.5313  120.9516 O   0  0  0  0  0  0  0  0  0  0  0  0
   43.8753   44.8372  119.6026 N   0  0  0  0  0  0  0  0  0  0  0  0
   43.1033   45.3943  118.5051 C   0  0  0  0  0  0  0  0  0  0  0  0
   43.4643   44.9053  117.5752 H   0  0  0  0  0  0  0  0  0  0  0  0
   43.3089   46.4854  118.4792 H   0  0  0  0  0  0  0  0  0  0  0  0
   42.0167   45.1997  118.6403 H   0  0  0  0  0  0  0  0  0  0  0  0
   45.3168   44.8389  119.4216 C   0  0  0  0  0  0  0  0  0  0  0  0
   45.5799   45.7907  118.9127 H   0  0  0  0  0  0  0  0  0  0  0  0
   45.5702   43.9679  118.7811 H   0  0  0  0  0  0  0  0  0  0  0  0
   45.8350   44.7856  120.4030 H   0  0  0  0  0  0  0  0  0  0  0  0
   44.0251   44.1798  123.0982 C   0  0  0  0  0  0  0  0  0  0  0  0
   43.4362   45.0525  123.3394 H   0  0  0  0  0  0  0  0  0  0  0  0
   44.5985   43.2566  129.0837 C   0  0  0  0  0  0  0  0  0  0  0  0
   44.3887   42.1947  129.0932 H   0  0  0  0  0  0  0  0  0  0  0  0
   44.6916   43.8576  130.2654 N   0  0  0  0  0  0  0  0  0  0  0  0
  1  2  1  0
  1  3  1  0
  1  4  1  0
  1  5  1  0
  5  6  2  0
  5 38  1  0
  6  7  1  0
  6  8  1  0
  8  9  1  0
  8 10  2  0
 10 11  1  0
 10 36  1  0
 11 12  2  0
 11 13  1  0
 13 14  1  0
 13 15  1  0
 15 16  2  0
 15 34  1  0
 16 17  1  0
 16 18  1  0
 18 19  1  0
 18 20  2  0
 20 21  1  0
 20 22  1  0
 22 23  1  0
 22 34  2  0
 23 24  2  0
 23 25  1  0
 25 26  1  0
 25 30  1  0
 26 27  1  0
 26 28  1  0
 26 29  1  0
 30 31  1  0
 30 32  1  0
 30 33  1  0
 34 35  1  0
 36 37  1  0
 36 38  2  0
M  END
> <intraLJ>
27.104    

> <intraEL>
-5.002    

> <intraDihe>
13.736    

> <interLJ>
0.000     

> <interEJ>
0.000     

> <gridLJ>
1.439     

> <gridEL>
0.000     

> <totalE>
37.277    

> <LGFE>
1.439   

> <LE>
0.069   

> <SMILES>
Cc1ccc(C(=O)Nc2cccc(C(=O)N(C)C)c2)cn1

> <atom.dprop.GFE>
0.1535 0.0000 0.0000 0.0000 0.0866 0.0965 0.0000 0.1064 0.0000 0.1064 0.0000 0.2200 0.2480 0.0000 0.0888 0.0888 0.0000 0.0187 0.0000 -0.0170 0.0000 0.0187 0.0000 0.1490 0.2085 -0.1891 0.0000 0.0000 0.0000 -0.1498 0.0000 0.0000 0.0000 0.0556 0.0000 0.1056 0.0000 0.0440

> <atom.prop.CLASS>
PRPC NCLA NCLA NCLA GEHC BENC NCLA BENC NCLA BENC NCLA GENA GEND NCLA BENC BENC NCLA BENC NCLA BENC NCLA BENC NCLA GENA GEHC PRPC NCLA NCLA NCLA PRPC NCLA NCLA NCLA BENC NCLA GEHC NCLA GENA

> <cluster_id>
1

> <rmsd_to_cluster_rep>
0.00    

> <ligRMSD>
139.37  

> <ligCOMD>
139.23  

$$$$
