30656579_1519_782
     RDKit          3D

 40 41  0  0  0  0  0  0  0  0999 V2000
   47.6119   44.2470  130.1361 C   0  0  0  0  0  0  0  0  0  0  0  0
   48.1018   45.2375  130.0182 H   0  0  0  0  0  0  0  0  0  0  0  0
   48.3860   43.4574  130.2409 H   0  0  0  0  0  0  0  0  0  0  0  0
   46.9605   44.2569  131.0358 H   0  0  0  0  0  0  0  0  0  0  0  0
   46.7716   43.9342  128.9442 C   0  0  0  0  0  0  0  0  0  0  0  0
   46.6908   44.8689  127.8910 C   0  0  0  0  0  0  0  0  0  0  0  0
   47.2283   45.8025  127.9393 H   0  0  0  0  0  0  0  0  0  0  0  0
   45.8976   44.5631  126.7796 C   0  0  0  0  0  0  0  0  0  0  0  0
   45.8279   45.2661  125.9617 H   0  0  0  0  0  0  0  0  0  0  0  0
   45.2186   43.3341  126.7503 C   0  0  0  0  0  0  0  0  0  0  0  0
   44.3760   42.9696  125.5931 C   0  0  0  0  0  0  0  0  0  0  0  0
   43.7438   41.9162  125.6223 O   0  0  0  0  0  0  0  0  0  0  0  0
   44.3534   43.8312  124.5457 N   0  0  0  0  0  0  0  0  0  0  0  0
   44.9543   44.6244  124.5474 H   0  0  0  0  0  0  0  0  0  0  0  0
   43.5771   43.7059  123.3606 C   0  0  0  0  0  0  0  0  0  0  0  0
   42.2153   43.3803  123.4918 C   0  0  0  0  0  0  0  0  0  0  0  0
   41.7907   43.2125  124.4711 H   0  0  0  0  0  0  0  0  0  0  0  0
   41.3929   43.2694  122.3752 C   0  0  0  0  0  0  0  0  0  0  0  0
   40.3506   43.0087  122.4920 H   0  0  0  0  0  0  0  0  0  0  0  0
   41.9189   43.5031  121.1089 C   0  0  0  0  0  0  0  0  0  0  0  0
   41.2838   43.4204  120.2381 H   0  0  0  0  0  0  0  0  0  0  0  0
   43.2640   43.8499  120.9597 C   0  0  0  0  0  0  0  0  0  0  0  0
   43.5858   44.0207  119.9458 H   0  0  0  0  0  0  0  0  0  0  0  0
   44.1342   43.9696  122.0733 C   0  0  0  0  0  0  0  0  0  0  0  0
   45.6312   44.3572  121.8545 C   0  0  0  0  0  0  0  0  0  0  0  0
   46.5616   43.2484  122.4024 C   0  0  0  0  0  0  0  0  0  0  0  0
   47.6097   43.4638  122.1031 H   0  0  0  0  0  0  0  0  0  0  0  0
   46.2813   42.2588  121.9837 H   0  0  0  0  0  0  0  0  0  0  0  0
   46.5470   43.1876  123.5066 H   0  0  0  0  0  0  0  0  0  0  0  0
   45.9209   45.7184  122.5279 C   0  0  0  0  0  0  0  0  0  0  0  0
   46.9596   46.0343  122.2903 H   0  0  0  0  0  0  0  0  0  0  0  0
   45.8337   45.6733  123.6298 H   0  0  0  0  0  0  0  0  0  0  0  0
   45.2292   46.4987  122.1454 H   0  0  0  0  0  0  0  0  0  0  0  0
   45.9811   44.5183  120.3531 C   0  0  0  0  0  0  0  0  0  0  0  0
   47.0553   44.7797  120.2451 H   0  0  0  0  0  0  0  0  0  0  0  0
   45.3877   45.3346  119.8906 H   0  0  0  0  0  0  0  0  0  0  0  0
   45.8043   43.5723  119.7996 H   0  0  0  0  0  0  0  0  0  0  0  0
   45.3647   42.4735  127.8547 C   0  0  0  0  0  0  0  0  0  0  0  0
   44.8480   41.5226  127.8813 H   0  0  0  0  0  0  0  0  0  0  0  0
   46.1166   42.7780  128.9076 N   0  0  0  0  0  0  0  0  0  0  0  0
  1  2  1  0
  1  3  1  0
  1  4  1  0
  1  5  1  0
  5  6  2  0
  5 40  1  0
  6  7  1  0
  6  8  1  0
  8  9  1  0
  8 10  2  0
 10 11  1  0
 10 38  1  0
 11 12  2  0
 11 13  1  0
 13 14  1  0
 13 15  1  0
 15 16  2  0
 15 24  1  0
 16 17  1  0
 16 18  1  0
 18 19  1  0
 18 20  2  0
 20 21  1  0
 20 22  1  0
 22 23  1  0
 22 24  2  0
 24 25  1  0
 25 26  1  0
 25 30  1  0
 25 34  1  0
 26 27  1  0
 26 28  1  0
 26 29  1  0
 30 31  1  0
 30 32  1  0
 30 33  1  0
 34 35  1  0
 34 36  1  0
 34 37  1  0
 38 39  1  0
 38 40  2  0
M  END
> <intraLJ>
27.173    

> <intraEL>
-5.726    

> <intraDihe>
5.115     

> <interLJ>
0.000     

> <interEJ>
0.000     

> <gridLJ>
1.499     

> <gridEL>
0.000     

> <totalE>
28.060    

> <LGFE>
1.499   

> <LE>
0.075   

> <SMILES>
Cc1ccc(C(=O)Nc2ccccc2C(C)(C)C)cn1

> <atom.dprop.GFE>
0.1748 0.0000 0.0000 0.0000 0.1056 0.1064 0.0000 0.1159 0.0000 0.1159 0.0000 0.2800 0.2480 0.0000 0.0556 0.0556 0.0000 0.0187 0.0000 -0.0170 0.0000 -0.0170 0.0000 0.0187 0.0373 0.0373 0.0000 0.0000 0.0000 0.0373 0.0000 0.0000 0.0000 -0.0976 0.0000 0.0000 0.0000 0.1292 0.0000 0.0940

> <atom.prop.CLASS>
PRPC NCLA NCLA NCLA GEHC BENC NCLA BENC NCLA BENC NCLA GENA GEND NCLA BENC BENC NCLA BENC NCLA BENC NCLA BENC NCLA BENC PRPC PRPC NCLA NCLA NCLA PRPC NCLA NCLA NCLA PRPC NCLA NCLA NCLA GEHC NCLA GENA

> <cluster_id>
1

> <rmsd_to_cluster_rep>
0.00    

> <ligRMSD>
139.41  

> <ligCOMD>
139.27  

$$$$
