31878068_1396_152
     RDKit          3D

 33 34  0  0  0  0  0  0  0  0999 V2000
   42.8840   45.0444  132.0809 C   0  0  0  0  0  0  0  0  0  0  0  0
   41.7838   44.8908  132.0499 H   0  0  0  0  0  0  0  0  0  0  0  0
   43.1103   46.0414  132.5151 H   0  0  0  0  0  0  0  0  0  0  0  0
   43.3550   44.2498  132.6979 H   0  0  0  0  0  0  0  0  0  0  0  0
   43.4594   44.9829  130.7055 C   0  0  0  0  0  0  0  0  0  0  0  0
   42.6038   44.7648  129.6058 C   0  0  0  0  0  0  0  0  0  0  0  0
   41.5423   44.6395  129.7491 H   0  0  0  0  0  0  0  0  0  0  0  0
   43.1595   44.7111  128.3216 C   0  0  0  0  0  0  0  0  0  0  0  0
   42.5186   44.5469  127.4671 H   0  0  0  0  0  0  0  0  0  0  0  0
   44.5455   44.8924  128.1719 C   0  0  0  0  0  0  0  0  0  0  0  0
   45.1806   44.8346  126.8345 C   0  0  0  0  0  0  0  0  0  0  0  0
   46.3960   44.9802  126.7361 O   0  0  0  0  0  0  0  0  0  0  0  0
   44.3759   44.6271  125.7683 N   0  0  0  0  0  0  0  0  0  0  0  0
   43.3942   44.5075  125.8874 H   0  0  0  0  0  0  0  0  0  0  0  0
   44.8034   44.7549  124.3985 C   0  0  0  0  0  0  0  0  0  0  0  0
   45.2852   45.7404  124.2097 H   0  0  0  0  0  0  0  0  0  0  0  0
   45.5702   43.9726  124.2011 H   0  0  0  0  0  0  0  0  0  0  0  0
   43.6295   44.5528  123.4245 C   0  0  0  0  0  0  0  0  0  0  0  0
   42.8360   45.3035  123.6304 H   0  0  0  0  0  0  0  0  0  0  0  0
   43.1951   43.5454  123.6142 H   0  0  0  0  0  0  0  0  0  0  0  0
   44.0432   44.6436  121.9775 C   0  0  0  0  0  0  0  0  0  0  0  0
   43.6235   45.5670  121.0517 C   0  0  0  0  0  0  0  0  0  0  0  0
   42.9587   46.4120  121.1787 H   0  0  0  0  0  0  0  0  0  0  0  0
   44.3253   45.2228  119.5369 S   0  0  0  0  0  0  0  0  0  0  0  0
   45.1230   43.8718  120.1909 C   0  0  0  0  0  0  0  0  0  0  0  0
   46.0121   43.0183  119.3310 C   0  0  0  0  0  0  0  0  0  0  0  0
   46.4482   42.1831  119.9203 H   0  0  0  0  0  0  0  0  0  0  0  0
   46.8394   43.6339  118.9175 H   0  0  0  0  0  0  0  0  0  0  0  0
   45.4262   42.5936  118.4880 H   0  0  0  0  0  0  0  0  0  0  0  0
   44.9053   43.6465  121.4808 N   0  0  0  0  0  0  0  0  0  0  0  0
   45.3117   45.0924  129.3370 C   0  0  0  0  0  0  0  0  0  0  0  0
   46.3860   45.2124  129.2739 H   0  0  0  0  0  0  0  0  0  0  0  0
   44.7712   45.1354  130.5511 N   0  0  0  0  0  0  0  0  0  0  0  0
  1  2  1  0
  1  3  1  0
  1  4  1  0
  1  5  1  0
  5  6  2  0
  5 33  1  0
  6  7  1  0
  6  8  1  0
  8  9  1  0
  8 10  2  0
 10 11  1  0
 10 31  1  0
 11 12  2  0
 11 13  1  0
 13 14  1  0
 13 15  1  0
 15 16  1  0
 15 17  1  0
 15 18  1  0
 18 19  1  0
 18 20  1  0
 18 21  1  0
 21 22  2  0
 21 30  1  0
 22 23  1  0
 22 24  1  0
 24 25  1  0
 25 26  1  0
 25 30  2  0
 26 27  1  0
 26 28  1  0
 26 29  1  0
 31 32  1  0
 31 33  2  0
M  END
> <intraLJ>
11.937    

> <intraEL>
-7.836    

> <intraDihe>
1.914     

> <interLJ>
0.000     

> <interEJ>
0.000     

> <gridLJ>
1.808     

> <gridEL>
0.000     

> <totalE>
7.822     

> <LGFE>
1.808   

> <LE>
0.100   

> <SMILES>
Cc1ccc(C(=O)NCCc2csc(C)n2)cn1

> <atom.dprop.GFE>
0.1535 0.0000 0.0000 0.0000 0.0709 0.0877 0.0000 0.1064 0.0000 0.1064 0.0000 0.2200 0.2140 0.0000 0.1772 0.0000 0.0000 0.1109 0.0000 0.0000 0.1941 0.1961 0.0000 -0.1498 0.2085 -0.1498 0.0000 0.0000 0.0000 0.1490 0.1056 0.0000 0.0070

> <atom.prop.CLASS>
PRPC NCLA NCLA NCLA GEHC BENC NCLA BENC NCLA BENC NCLA GENA GEND NCLA PRPC NCLA NCLA PRPC NCLA NCLA GEHC GEHC NCLA PRPC GEHC PRPC NCLA NCLA NCLA GENA GEHC NCLA GENA

> <cluster_id>
1

> <rmsd_to_cluster_rep>
0.00    

> <ligRMSD>
140.53  

> <ligCOMD>
140.42  

$$$$
