31919176_1885_131
     RDKit          3D

 36 37  0  0  0  0  0  0  0  0999 V2000
   44.5122   43.9461  120.3742 C   0  0  0  0  0  0  0  0  0  0  0  0
   45.0576   44.8845  120.1355 H   0  0  0  0  0  0  0  0  0  0  0  0
   43.4447   44.0504  120.0859 H   0  0  0  0  0  0  0  0  0  0  0  0
   44.9696   43.0973  119.8227 H   0  0  0  0  0  0  0  0  0  0  0  0
   44.5838   43.6564  121.8365 C   0  0  0  0  0  0  0  0  0  0  0  0
   45.2863   44.5396  122.6827 C   0  0  0  0  0  0  0  0  0  0  0  0
   45.7631   45.4218  122.2861 H   0  0  0  0  0  0  0  0  0  0  0  0
   45.3610   44.2436  124.0491 C   0  0  0  0  0  0  0  0  0  0  0  0
   45.8983   44.9024  124.7162 H   0  0  0  0  0  0  0  0  0  0  0  0
   44.7345   43.0813  124.5251 C   0  0  0  0  0  0  0  0  0  0  0  0
   44.7866   42.7273  125.9622 C   0  0  0  0  0  0  0  0  0  0  0  0
   43.7141   42.6977  126.5574 O   0  0  0  0  0  0  0  0  0  0  0  0
   45.9952   42.4451  126.5452 N   0  0  0  0  0  0  0  0  0  0  0  0
   47.1788   42.2280  125.7345 C   0  0  0  0  0  0  0  0  0  0  0  0
   47.9081   43.0260  125.9883 H   0  0  0  0  0  0  0  0  0  0  0  0
   46.9308   42.2548  124.6508 H   0  0  0  0  0  0  0  0  0  0  0  0
   47.5797   41.2293  126.0104 H   0  0  0  0  0  0  0  0  0  0  0  0
   46.2067   42.3960  127.9930 C   0  0  0  0  0  0  0  0  0  0  0  0
   45.7387   41.4650  128.3829 H   0  0  0  0  0  0  0  0  0  0  0  0
   47.2969   42.3002  128.1923 H   0  0  0  0  0  0  0  0  0  0  0  0
   45.7087   43.5951  128.7651 C   0  0  0  0  0  0  0  0  0  0  0  0
   46.3353   44.8439  128.8554 C   0  0  0  0  0  0  0  0  0  0  0  0
   47.5745   45.2914  128.1359 C   0  0  0  0  0  0  0  0  0  0  0  0
   47.4141   45.2288  127.0384 H   0  0  0  0  0  0  0  0  0  0  0  0
   48.4289   44.6378  128.4108 H   0  0  0  0  0  0  0  0  0  0  0  0
   47.8317   46.3405  128.3986 H   0  0  0  0  0  0  0  0  0  0  0  0
   45.6997   45.6678  129.6750 N   0  0  0  0  0  0  0  0  0  0  0  0
   44.6125   44.9361  130.1617 O   0  0  0  0  0  0  0  0  0  0  0  0
   44.6474   43.6979  129.5995 C   0  0  0  0  0  0  0  0  0  0  0  0
   43.5448   42.7683  130.0267 C   0  0  0  0  0  0  0  0  0  0  0  0
   43.5921   41.8134  129.4645 H   0  0  0  0  0  0  0  0  0  0  0  0
   42.5580   43.2419  129.8372 H   0  0  0  0  0  0  0  0  0  0  0  0
   43.6361   42.5487  131.1120 H   0  0  0  0  0  0  0  0  0  0  0  0
   44.0269   42.2828  123.6088 C   0  0  0  0  0  0  0  0  0  0  0  0
   43.5278   41.3816  123.9414 H   0  0  0  0  0  0  0  0  0  0  0  0
   43.9842   42.5670  122.3097 N   0  0  0  0  0  0  0  0  0  0  0  0
  1  2  1  0
  1  3  1  0
  1  4  1  0
  1  5  1  0
  5  6  2  0
  5 36  1  0
  6  7  1  0
  6  8  1  0
  8  9  1  0
  8 10  2  0
 10 11  1  0
 10 34  1  0
 11 12  2  0
 11 13  1  0
 13 14  1  0
 13 18  1  0
 14 15  1  0
 14 16  1  0
 14 17  1  0
 18 19  1  0
 18 20  1  0
 18 21  1  0
 21 22  1  0
 21 29  2  0
 22 23  1  0
 22 27  2  0
 23 24  1  0
 23 25  1  0
 23 26  1  0
 27 28  1  0
 28 29  1  0
 29 30  1  0
 30 31  1  0
 30 32  1  0
 30 33  1  0
 34 35  1  0
 34 36  2  0
M  END
> <intraLJ>
14.327    

> <intraEL>
-9.215    

> <intraDihe>
16.961    

> <interLJ>
0.000     

> <interEJ>
0.000     

> <gridLJ>
2.338     

> <gridEL>
0.000     

> <totalE>
24.411    

> <LGFE>
2.338   

> <LE>
0.123   

> <SMILES>
Cc1ccc(C(=O)N(C)Cc2c(C)noc2C)cn1

> <atom.dprop.GFE>
-0.0976 0.0000 0.0000 0.0000 0.1941 0.0556 0.0000 0.0888 0.0000 0.0888 0.0000 0.2200 0.1542 0.2381 0.0000 0.0000 0.0000 0.2121 0.0000 0.0000 0.1056 0.1056 0.2121 0.0000 0.0000 0.0000 0.0440 0.0440 0.0866 0.1748 0.0000 0.0000 0.0000 0.1971 0.0000 0.2140

> <atom.prop.CLASS>
PRPC NCLA NCLA NCLA GEHC BENC NCLA BENC NCLA BENC NCLA GENA GEHC PRPC NCLA NCLA NCLA PRPC NCLA NCLA GEHC GEHC PRPC NCLA NCLA NCLA GENA GENA GEHC PRPC NCLA NCLA NCLA GEHC NCLA GENA

> <cluster_id>
1

> <rmsd_to_cluster_rep>
0.00    

> <ligRMSD>
140.75  

> <ligCOMD>
140.65  

$$$$
