31981950_836_395
     RDKit          3D

 41 42  0  0  0  0  0  0  0  0999 V2000
   48.6138   45.4695  119.5434 C   0  0  0  0  0  0  0  0  0  0  0  0
   48.8927   44.5519  120.1036 H   0  0  0  0  0  0  0  0  0  0  0  0
   49.3194   46.2834  119.8188 H   0  0  0  0  0  0  0  0  0  0  0  0
   48.7174   45.2690  118.4548 H   0  0  0  0  0  0  0  0  0  0  0  0
   47.2108   45.8848  119.8547 C   0  0  0  0  0  0  0  0  0  0  0  0
   46.7554   46.9064  119.3473 O   0  0  0  0  0  0  0  0  0  0  0  0
   46.5073   45.0959  120.7055 N   0  0  0  0  0  0  0  0  0  0  0  0
   46.9257   44.2774  121.0886 H   0  0  0  0  0  0  0  0  0  0  0  0
   45.1551   45.3455  121.1518 C   0  0  0  0  0  0  0  0  0  0  0  0
   45.0563   46.3565  121.6080 H   0  0  0  0  0  0  0  0  0  0  0  0
   44.4801   45.3147  120.2683 H   0  0  0  0  0  0  0  0  0  0  0  0
   44.6710   44.2919  122.1765 C   0  0  0  0  0  0  0  0  0  0  0  0
   44.8554   43.2877  121.7269 H   0  0  0  0  0  0  0  0  0  0  0  0
   45.4685   44.3521  123.4969 C   0  0  0  0  0  0  0  0  0  0  0  0
   45.3566   45.3661  123.9398 H   0  0  0  0  0  0  0  0  0  0  0  0
   46.5467   44.1805  123.2901 H   0  0  0  0  0  0  0  0  0  0  0  0
   44.9713   43.3113  124.5141 C   0  0  0  0  0  0  0  0  0  0  0  0
   45.5755   43.4304  125.4399 H   0  0  0  0  0  0  0  0  0  0  0  0
   45.1513   42.2886  124.1175 H   0  0  0  0  0  0  0  0  0  0  0  0
   43.5322   43.4997  124.7279 N   0  0  0  0  0  0  0  0  0  0  0  0
   42.9474   43.7510  125.9387 C   0  0  0  0  0  0  0  0  0  0  0  0
   41.7607   44.0351  126.0812 O   0  0  0  0  0  0  0  0  0  0  0  0
   43.7630   43.7129  127.1703 C   0  0  0  0  0  0  0  0  0  0  0  0
   43.8792   44.8419  127.9941 C   0  0  0  0  0  0  0  0  0  0  0  0
   43.3880   45.7708  127.7419 H   0  0  0  0  0  0  0  0  0  0  0  0
   44.6665   44.7537  129.1490 C   0  0  0  0  0  0  0  0  0  0  0  0
   44.7854   45.6072  129.7974 H   0  0  0  0  0  0  0  0  0  0  0  0
   45.2966   43.5268  129.4473 C   0  0  0  0  0  0  0  0  0  0  0  0
   46.1410   43.4170  130.6730 C   0  0  0  0  0  0  0  0  0  0  0  0
   46.1635   44.3849  131.2185 H   0  0  0  0  0  0  0  0  0  0  0  0
   47.1715   43.1352  130.3690 H   0  0  0  0  0  0  0  0  0  0  0  0
   45.7132   42.6285  131.3280 H   0  0  0  0  0  0  0  0  0  0  0  0
   45.1583   42.4611  128.6627 N   0  0  0  0  0  0  0  0  0  0  0  0
   44.4146   42.5301  127.5619 C   0  0  0  0  0  0  0  0  0  0  0  0
   44.3339   41.6369  126.9557 H   0  0  0  0  0  0  0  0  0  0  0  0
   42.7100   43.3655  123.5221 C   0  0  0  0  0  0  0  0  0  0  0  0
   42.8458   42.3426  123.1069 H   0  0  0  0  0  0  0  0  0  0  0  0
   41.6227   43.5045  123.7197 H   0  0  0  0  0  0  0  0  0  0  0  0
   43.1579   44.3953  122.4724 C   0  0  0  0  0  0  0  0  0  0  0  0
   42.5733   44.2364  121.5414 H   0  0  0  0  0  0  0  0  0  0  0  0
   42.9343   45.4151  122.8553 H   0  0  0  0  0  0  0  0  0  0  0  0
  1  2  1  0
  1  3  1  0
  1  4  1  0
  1  5  1  0
  5  6  2  0
  5  7  1  0
  7  8  1  0
  7  9  1  0
  9 10  1  0
  9 11  1  0
  9 12  1  0
 12 13  1  0
 12 14  1  0
 12 39  1  0
 14 15  1  0
 14 16  1  0
 14 17  1  0
 17 18  1  0
 17 19  1  0
 17 20  1  0
 20 21  1  0
 20 36  1  0
 21 22  2  0
 21 23  1  0
 23 24  2  0
 23 34  1  0
 24 25  1  0
 24 26  1  0
 26 27  1  0
 26 28  2  0
 28 29  1  0
 28 33  1  0
 29 30  1  0
 29 31  1  0
 29 32  1  0
 33 34  2  0
 34 35  1  0
 36 37  1  0
 36 38  1  0
 36 39  1  0
 39 40  1  0
 39 41  1  0
M  END
> <intraLJ>
11.163    

> <intraEL>
-9.254    

> <intraDihe>
19.690    

> <interLJ>
0.000     

> <interEJ>
0.000     

> <gridLJ>
1.922     

> <gridEL>
0.000     

> <totalE>
23.521    

> <LGFE>
1.922   

> <LE>
0.096   

> <SMILES>
CC(=O)NCC1CCN(C(=O)c2ccc(C)nc2)CC1

> <atom.dprop.GFE>
-0.1498 0.0000 0.0000 0.0000 0.0000 0.0580 0.2940 0.0000 -0.0340 0.0000 0.0000 0.0373 0.0000 0.1109 0.0000 0.0000 0.1772 0.0000 0.0000 0.1908 0.0000 0.2800 0.1159 0.1064 0.0000 0.0965 0.0000 0.1056 0.1618 0.0000 0.0000 0.0000 0.0940 0.1292 0.0000 0.1109 0.0000 0.0000 0.0373 0.0000 0.0000

> <atom.prop.CLASS>
PRPC NCLA NCLA NCLA NCLA GENA GEND NCLA PRPC NCLA NCLA PRPC NCLA PRPC NCLA NCLA PRPC NCLA NCLA GEHC NCLA GENA BENC BENC NCLA BENC NCLA GEHC PRPC NCLA NCLA NCLA GENA GEHC NCLA PRPC NCLA NCLA PRPC NCLA NCLA

> <cluster_id>
1

> <rmsd_to_cluster_rep>
0.00    

> <ligRMSD>
139.59  

> <ligCOMD>
139.48  

$$$$
