49139618_3223_249
     RDKit          3D

 37 38  0  0  0  0  0  0  0  0999 V2000
   41.2679   45.7729  120.4377 C   0  0  0  0  0  0  0  0  0  0  0  0
   40.8545   46.2177  119.5077 H   0  0  0  0  0  0  0  0  0  0  0  0
   42.2980   46.1599  120.5919 H   0  0  0  0  0  0  0  0  0  0  0  0
   40.6257   46.0778  121.2914 H   0  0  0  0  0  0  0  0  0  0  0  0
   41.2903   44.3588  120.3019 O   0  0  0  0  0  0  0  0  0  0  0  0
   41.8475   43.7205  121.4416 C   0  0  0  0  0  0  0  0  0  0  0  0
   41.4683   44.2332  122.3528 H   0  0  0  0  0  0  0  0  0  0  0  0
   41.5084   42.6651  121.4807 H   0  0  0  0  0  0  0  0  0  0  0  0
   43.3528   43.8356  121.4489 C   0  0  0  0  0  0  0  0  0  0  0  0
   44.0181   43.7053  120.2180 C   0  0  0  0  0  0  0  0  0  0  0  0
   43.4474   43.5337  119.3168 H   0  0  0  0  0  0  0  0  0  0  0  0
   45.4113   43.7949  120.1478 C   0  0  0  0  0  0  0  0  0  0  0  0
   45.9123   43.6954  119.1959 H   0  0  0  0  0  0  0  0  0  0  0  0
   46.1556   44.0157  121.3103 C   0  0  0  0  0  0  0  0  0  0  0  0
   47.2320   44.0896  121.2575 H   0  0  0  0  0  0  0  0  0  0  0  0
   45.5071   44.1416  122.5412 C   0  0  0  0  0  0  0  0  0  0  0  0
   46.0911   44.3194  123.4326 H   0  0  0  0  0  0  0  0  0  0  0  0
   44.1100   44.0494  122.6269 C   0  0  0  0  0  0  0  0  0  0  0  0
   43.4652   44.2317  123.9765 C   0  0  0  0  0  0  0  0  0  0  0  0
   42.5293   43.6335  124.0496 H   0  0  0  0  0  0  0  0  0  0  0  0
   43.1908   45.3042  124.0768 H   0  0  0  0  0  0  0  0  0  0  0  0
   44.3763   43.8748  125.0310 O   0  0  0  0  0  0  0  0  0  0  0  0
   43.9479   44.0280  126.2856 C   0  0  0  0  0  0  0  0  0  0  0  0
   42.8449   44.4222  126.6205 O   0  0  0  0  0  0  0  0  0  0  0  0
   44.9908   43.6481  127.2836 C   0  0  0  0  0  0  0  0  0  0  0  0
   46.2649   43.2363  126.8574 C   0  0  0  0  0  0  0  0  0  0  0  0
   46.5020   43.1759  125.8055 H   0  0  0  0  0  0  0  0  0  0  0  0
   47.2269   42.8922  127.8148 C   0  0  0  0  0  0  0  0  0  0  0  0
   48.2101   42.5673  127.5131 H   0  0  0  0  0  0  0  0  0  0  0  0
   46.8833   42.9814  129.1802 C   0  0  0  0  0  0  0  0  0  0  0  0
   47.8936   42.6183  130.2156 C   0  0  0  0  0  0  0  0  0  0  0  0
   48.8457   42.3031  129.7370 H   0  0  0  0  0  0  0  0  0  0  0  0
   47.4890   41.7845  130.8279 H   0  0  0  0  0  0  0  0  0  0  0  0
   48.0745   43.5048  130.8600 H   0  0  0  0  0  0  0  0  0  0  0  0
   45.6778   43.3825  129.5729 N   0  0  0  0  0  0  0  0  0  0  0  0
   44.7568   43.7073  128.6725 C   0  0  0  0  0  0  0  0  0  0  0  0
   43.7922   44.0305  129.0424 H   0  0  0  0  0  0  0  0  0  0  0  0
  1  2  1  0
  1  3  1  0
  1  4  1  0
  1  5  1  0
  5  6  1  0
  6  7  1  0
  6  8  1  0
  6  9  1  0
  9 10  2  0
  9 18  1  0
 10 11  1  0
 10 12  1  0
 12 13  1  0
 12 14  2  0
 14 15  1  0
 14 16  1  0
 16 17  1  0
 16 18  2  0
 18 19  1  0
 19 20  1  0
 19 21  1  0
 19 22  1  0
 22 23  1  0
 23 24  2  0
 23 25  1  0
 25 26  2  0
 25 36  1  0
 26 27  1  0
 26 28  1  0
 28 29  1  0
 28 30  2  0
 30 31  1  0
 30 35  1  0
 31 32  1  0
 31 33  1  0
 31 34  1  0
 35 36  2  0
 36 37  1  0
M  END
> <intraLJ>
26.925    

> <intraEL>
0.136     

> <intraDihe>
3.206     

> <interLJ>
0.000     

> <interEJ>
0.000     

> <gridLJ>
1.385     

> <gridEL>
0.000     

> <totalE>
31.653    

> <LGFE>
1.385   

> <LE>
0.069   

> <SMILES>
COCc1ccccc1COC(=O)c1ccc(C)nc1

> <atom.dprop.GFE>
-0.0976 0.0000 0.0000 0.0000 0.0930 -0.0340 0.0000 0.0000 -0.0170 -0.0489 0.0000 -0.0489 0.0000 -0.0170 0.0000 0.0187 0.0000 0.0556 0.1772 0.0000 0.0000 0.3160 0.0000 0.2200 0.1159 0.1159 0.0000 0.1064 0.0000 0.1056 0.1748 0.0000 0.0000 0.0000 0.0440 0.1056 0.0000

> <atom.prop.CLASS>
PRPC NCLA NCLA NCLA GENA PRPC NCLA NCLA BENC BENC NCLA BENC NCLA BENC NCLA BENC NCLA BENC PRPC NCLA NCLA GENA NCLA GENA BENC BENC NCLA BENC NCLA GEHC PRPC NCLA NCLA NCLA GENA GEHC NCLA

> <cluster_id>
1

> <rmsd_to_cluster_rep>
0.00    

> <ligRMSD>
139.34  

> <ligCOMD>
139.25  

$$$$
