23728018_1295_276
     RDKit          3D

 33 34  0  0  0  0  0  0  0  0999 V2000
   41.9832   38.1208   87.7406 C   0  0  0  0  0  0  0  0  0  0  0  0
   41.1021   37.6447   88.2225 H   0  0  0  0  0  0  0  0  0  0  0  0
   42.9156   37.6536   88.1229 H   0  0  0  0  0  0  0  0  0  0  0  0
   41.9223   37.9918   86.6390 H   0  0  0  0  0  0  0  0  0  0  0  0
   42.0215   39.5803   88.0470 C   0  0  0  0  0  0  0  0  0  0  0  0
   40.9939   40.1510   88.8259 C   0  0  0  0  0  0  0  0  0  0  0  0
   40.1847   39.5449   89.2012 H   0  0  0  0  0  0  0  0  0  0  0  0
   41.0443   41.5217   89.1057 C   0  0  0  0  0  0  0  0  0  0  0  0
   40.2626   41.9739   89.6993 H   0  0  0  0  0  0  0  0  0  0  0  0
   42.1099   42.2836   88.5928 C   0  0  0  0  0  0  0  0  0  0  0  0
   42.2016   43.7388   88.8674 C   0  0  0  0  0  0  0  0  0  0  0  0
   41.3439   44.2678   89.5688 O   0  0  0  0  0  0  0  0  0  0  0  0
   43.2379   44.4263   88.3301 N   0  0  0  0  0  0  0  0  0  0  0  0
   43.9115   43.9656   87.7596 H   0  0  0  0  0  0  0  0  0  0  0  0
   43.5010   45.8257   88.5522 C   0  0  0  0  0  0  0  0  0  0  0  0
   43.0622   46.3992   87.7069 H   0  0  0  0  0  0  0  0  0  0  0  0
   43.0092   46.1950   89.4800 H   0  0  0  0  0  0  0  0  0  0  0  0
   44.9393   46.0817   88.6231 C   0  0  0  0  0  0  0  0  0  0  0  0
   46.1447   46.2603   88.6334 C   0  0  0  0  0  0  0  0  0  0  0  0
   47.5587   46.4902   88.6345 C   0  0  0  0  0  0  0  0  0  0  0  0
   48.4430   45.4047   88.7017 C   0  0  0  0  0  0  0  0  0  0  0  0
   48.0657   44.3934   88.7537 H   0  0  0  0  0  0  0  0  0  0  0  0
   49.8255   45.6291   88.7018 C   0  0  0  0  0  0  0  0  0  0  0  0
   50.5076   44.7933   88.7536 H   0  0  0  0  0  0  0  0  0  0  0  0
   50.3239   46.9366   88.6349 C   0  0  0  0  0  0  0  0  0  0  0  0
   51.3901   47.1087   88.6351 H   0  0  0  0  0  0  0  0  0  0  0  0
   49.4394   48.0209   88.5680 C   0  0  0  0  0  0  0  0  0  0  0  0
   49.8238   49.0289   88.5166 H   0  0  0  0  0  0  0  0  0  0  0  0
   48.0564   47.7989   88.5678 C   0  0  0  0  0  0  0  0  0  0  0  0
   47.3799   48.6399   88.5162 H   0  0  0  0  0  0  0  0  0  0  0  0
   43.0859   41.6118   87.8309 C   0  0  0  0  0  0  0  0  0  0  0  0
   43.9332   42.1509   87.4272 H   0  0  0  0  0  0  0  0  0  0  0  0
   43.0287   40.3082   87.5753 N   0  0  0  0  0  0  0  0  0  0  0  0
  1  2  1  0
  1  3  1  0
  1  4  1  0
  1  5  1  0
  5  6  2  0
  5 33  1  0
  6  7  1  0
  6  8  1  0
  8  9  1  0
  8 10  2  0
 10 11  1  0
 10 31  1  0
 11 12  2  0
 11 13  1  0
 13 14  1  0
 13 15  1  0
 15 16  1  0
 15 17  1  0
 15 18  1  0
 18 19  3  0
 19 20  1  0
 20 21  2  0
 20 29  1  0
 21 22  1  0
 21 23  1  0
 23 24  1  0
 23 25  2  0
 25 26  1  0
 25 27  1  0
 27 28  1  0
 27 29  2  0
 29 30  1  0
 31 32  1  0
 31 33  2  0
M  END
> <intraLJ>
21.362    

> <intraEL>
-4.993    

> <intraDihe>
0.638     

> <interLJ>
0.000     

> <interEJ>
0.000     

> <gridLJ>
-0.337    

> <gridEL>
0.000     

> <totalE>
16.670    

> <LGFE>
-0.337  

> <LE>
-0.018  

> <SMILES>
Cc1ccc(C(=O)NCC#Cc2ccccc2)cn1

> <atom.dprop.GFE>
-0.0892 0.0000 0.0000 0.0000 0.1921 -0.0716 0.0000 -0.0716 0.0000 -0.0716 0.0000 0.0430 0.3060 0.0000 -0.1429 0.0000 0.0000 -0.1429 -0.1429 -0.0716 -0.0716 0.0000 -0.0716 0.0000 -0.0716 0.0000 -0.0716 0.0000 -0.0716 0.0000 0.1921 0.0000 0.0920

> <atom.prop.CLASS>
PRPC NCLA NCLA NCLA GEHC BENC NCLA BENC NCLA BENC NCLA GENA GEND NCLA PRPC NCLA NCLA PRPC PRPC BENC BENC NCLA BENC NCLA BENC NCLA BENC NCLA BENC NCLA GEHC NCLA GENA

> <cluster_id>
1

> <rmsd_to_cluster_rep>
0.00    

> <ligRMSD>
108.58  

> <ligCOMD>
108.22  

$$$$
