24065064_1484_845
     RDKit          3D

 38 39  0  0  0  0  0  0  0  0999 V2000
   50.1825   39.8346   87.0373 C   0  0  0  0  0  0  0  0  0  0  0  0
   49.8584   38.7772   86.9284 H   0  0  0  0  0  0  0  0  0  0  0  0
   50.9495   39.9099   87.8373 H   0  0  0  0  0  0  0  0  0  0  0  0
   50.6050   40.1969   86.0760 H   0  0  0  0  0  0  0  0  0  0  0  0
   49.0252   40.7009   87.4049 C   0  0  0  0  0  0  0  0  0  0  0  0
   47.7496   40.1209   87.5648 C   0  0  0  0  0  0  0  0  0  0  0  0
   47.6037   39.0617   87.4238 H   0  0  0  0  0  0  0  0  0  0  0  0
   46.6742   40.9458   87.9136 C   0  0  0  0  0  0  0  0  0  0  0  0
   45.6900   40.5169   88.0376 H   0  0  0  0  0  0  0  0  0  0  0  0
   46.9020   42.3220   88.0831 C   0  0  0  0  0  0  0  0  0  0  0  0
   45.7953   43.2307   88.4537 C   0  0  0  0  0  0  0  0  0  0  0  0
   46.0452   44.4176   88.6519 O   0  0  0  0  0  0  0  0  0  0  0  0
   44.5527   42.6911   88.5408 N   0  0  0  0  0  0  0  0  0  0  0  0
   44.4190   41.7331   88.3068 H   0  0  0  0  0  0  0  0  0  0  0  0
   43.3481   43.3559   88.8956 C   0  0  0  0  0  0  0  0  0  0  0  0
   42.3823   42.6107   89.5891 C   0  0  0  0  0  0  0  0  0  0  0  0
   42.5655   41.5713   89.8181 H   0  0  0  0  0  0  0  0  0  0  0  0
   41.1699   43.2017   89.9655 C   0  0  0  0  0  0  0  0  0  0  0  0
   40.4237   42.6196   90.4860 H   0  0  0  0  0  0  0  0  0  0  0  0
   40.9208   44.5464   89.6629 C   0  0  0  0  0  0  0  0  0  0  0  0
   39.9809   44.9917   89.9570 H   0  0  0  0  0  0  0  0  0  0  0  0
   41.8994   45.3082   89.0062 C   0  0  0  0  0  0  0  0  0  0  0  0
   41.6462   46.7333   88.6710 C   0  0  0  0  0  0  0  0  0  0  0  0
   40.6315   46.9641   88.0169 O   0  0  0  0  0  0  0  0  0  0  0  0
   42.5208   47.7040   89.0903 N   0  0  0  0  0  0  0  0  0  0  0  0
   42.3618   49.0775   88.6441 C   0  0  0  0  0  0  0  0  0  0  0  0
   43.3590   49.4218   88.2962 H   0  0  0  0  0  0  0  0  0  0  0  0
   42.0261   49.6711   89.5208 H   0  0  0  0  0  0  0  0  0  0  0  0
   41.6245   49.1463   87.8143 H   0  0  0  0  0  0  0  0  0  0  0  0
   43.6154   47.4665   90.0157 C   0  0  0  0  0  0  0  0  0  0  0  0
   43.6566   48.3390   90.7020 H   0  0  0  0  0  0  0  0  0  0  0  0
   44.5464   47.3952   89.4146 H   0  0  0  0  0  0  0  0  0  0  0  0
   43.4385   46.5394   90.6019 H   0  0  0  0  0  0  0  0  0  0  0  0
   43.1056   44.7077   88.6186 C   0  0  0  0  0  0  0  0  0  0  0  0
   43.8560   45.2962   88.1115 H   0  0  0  0  0  0  0  0  0  0  0  0
   48.2148   42.7982   87.9013 C   0  0  0  0  0  0  0  0  0  0  0  0
   48.4430   43.8479   88.0346 H   0  0  0  0  0  0  0  0  0  0  0  0
   49.2285   42.0034   87.5746 N   0  0  0  0  0  0  0  0  0  0  0  0
  1  2  1  0
  1  3  1  0
  1  4  1  0
  1  5  1  0
  5  6  2  0
  5 38  1  0
  6  7  1  0
  6  8  1  0
  8  9  1  0
  8 10  2  0
 10 11  1  0
 10 36  1  0
 11 12  2  0
 11 13  1  0
 13 14  1  0
 13 15  1  0
 15 16  2  0
 15 34  1  0
 16 17  1  0
 16 18  1  0
 18 19  1  0
 18 20  2  0
 20 21  1  0
 20 22  1  0
 22 23  1  0
 22 34  2  0
 23 24  2  0
 23 25  1  0
 25 26  1  0
 25 30  1  0
 26 27  1  0
 26 28  1  0
 26 29  1  0
 30 31  1  0
 30 32  1  0
 30 33  1  0
 34 35  1  0
 36 37  1  0
 36 38  2  0
M  END
> <intraLJ>
26.785    

> <intraEL>
-5.331    

> <intraDihe>
12.132    

> <interLJ>
0.000     

> <interEJ>
0.000     

> <gridLJ>
0.158     

> <gridEL>
0.000     

> <totalE>
33.745    

> <LGFE>
0.158   

> <LE>
0.008   

> <SMILES>
Cc1ccc(C(=O)Nc2cccc(C(=O)N(C)C)c2)cn1

> <atom.dprop.GFE>
-0.0233 0.0000 0.0000 0.0000 0.1838 -0.0448 0.0000 -0.0448 0.0000 -0.0448 0.0000 0.0540 0.3060 0.0000 -0.0716 -0.0922 0.0000 -0.0922 0.0000 -0.0922 0.0000 -0.0716 0.0000 0.0920 0.2141 -0.1429 0.0000 0.0000 0.0000 -0.1838 0.0000 0.0000 0.0000 -0.0716 0.0000 0.1921 0.0000 0.0920

> <atom.prop.CLASS>
PRPC NCLA NCLA NCLA GEHC BENC NCLA BENC NCLA BENC NCLA GENA GEND NCLA BENC BENC NCLA BENC NCLA BENC NCLA BENC NCLA GENA GEHC PRPC NCLA NCLA NCLA PRPC NCLA NCLA NCLA BENC NCLA GEHC NCLA GENA

> <cluster_id>
1

> <rmsd_to_cluster_rep>
0.00    

> <ligRMSD>
108.36  

> <ligCOMD>
108.30  

$$$$
