30656579_1519_877
     RDKit          3D

 40 41  0  0  0  0  0  0  0  0999 V2000
   49.7140   40.5830   88.6657 C   0  0  0  0  0  0  0  0  0  0  0  0
   49.6745   39.4788   88.5460 H   0  0  0  0  0  0  0  0  0  0  0  0
   50.0483   40.8355   89.6944 H   0  0  0  0  0  0  0  0  0  0  0  0
   50.4198   41.0144   87.9244 H   0  0  0  0  0  0  0  0  0  0  0  0
   48.3662   41.1815   88.4431 C   0  0  0  0  0  0  0  0  0  0  0  0
   47.2819   40.3405   88.1163 C   0  0  0  0  0  0  0  0  0  0  0  0
   47.4179   39.2745   88.0266 H   0  0  0  0  0  0  0  0  0  0  0  0
   46.0233   40.9156   87.9088 C   0  0  0  0  0  0  0  0  0  0  0  0
   45.1808   40.2854   87.6618 H   0  0  0  0  0  0  0  0  0  0  0  0
   45.8847   42.3068   88.0416 C   0  0  0  0  0  0  0  0  0  0  0  0
   44.5723   42.9532   87.8372 C   0  0  0  0  0  0  0  0  0  0  0  0
   43.5994   42.2558   87.5590 O   0  0  0  0  0  0  0  0  0  0  0  0
   44.5182   44.3025   87.9651 N   0  0  0  0  0  0  0  0  0  0  0  0
   45.3577   44.8179   88.1064 H   0  0  0  0  0  0  0  0  0  0  0  0
   43.3579   45.1186   87.8630 C   0  0  0  0  0  0  0  0  0  0  0  0
   42.4896   44.9032   86.7779 C   0  0  0  0  0  0  0  0  0  0  0  0
   42.7225   44.1495   86.0396 H   0  0  0  0  0  0  0  0  0  0  0  0
   41.3231   45.6474   86.6333 C   0  0  0  0  0  0  0  0  0  0  0  0
   40.6712   45.4767   85.7884 H   0  0  0  0  0  0  0  0  0  0  0  0
   40.9980   46.6070   87.5863 C   0  0  0  0  0  0  0  0  0  0  0  0
   40.0918   47.1864   87.4799 H   0  0  0  0  0  0  0  0  0  0  0  0
   41.8363   46.8199   88.6835 C   0  0  0  0  0  0  0  0  0  0  0  0
   41.5050   47.5755   89.3763 H   0  0  0  0  0  0  0  0  0  0  0  0
   43.0351   46.0836   88.8638 C   0  0  0  0  0  0  0  0  0  0  0  0
   43.9405   46.3605   90.1058 C   0  0  0  0  0  0  0  0  0  0  0  0
   45.3510   46.8115   89.6559 C   0  0  0  0  0  0  0  0  0  0  0  0
   45.9304   47.1511   90.5410 H   0  0  0  0  0  0  0  0  0  0  0  0
   45.2828   47.6606   88.9435 H   0  0  0  0  0  0  0  0  0  0  0  0
   45.9291   45.9944   89.1855 H   0  0  0  0  0  0  0  0  0  0  0  0
   44.0102   45.0957   90.9923 C   0  0  0  0  0  0  0  0  0  0  0  0
   44.5770   45.3259   91.9200 H   0  0  0  0  0  0  0  0  0  0  0  0
   44.5252   44.2547   90.4911 H   0  0  0  0  0  0  0  0  0  0  0  0
   42.9905   44.7677   91.2859 H   0  0  0  0  0  0  0  0  0  0  0  0
   43.3812   47.4995   90.9960 C   0  0  0  0  0  0  0  0  0  0  0  0
   44.0623   47.6705   91.8568 H   0  0  0  0  0  0  0  0  0  0  0  0
   42.3834   47.2338   91.4036 H   0  0  0  0  0  0  0  0  0  0  0  0
   43.3079   48.4499   90.4269 H   0  0  0  0  0  0  0  0  0  0  0  0
   47.0311   43.0556   88.3682 C   0  0  0  0  0  0  0  0  0  0  0  0
   46.9737   44.1321   88.4663 H   0  0  0  0  0  0  0  0  0  0  0  0
   48.2229   42.4981   88.5572 N   0  0  0  0  0  0  0  0  0  0  0  0
  1  2  1  0
  1  3  1  0
  1  4  1  0
  1  5  1  0
  5  6  2  0
  5 40  1  0
  6  7  1  0
  6  8  1  0
  8  9  1  0
  8 10  2  0
 10 11  1  0
 10 38  1  0
 11 12  2  0
 11 13  1  0
 13 14  1  0
 13 15  1  0
 15 16  2  0
 15 24  1  0
 16 17  1  0
 16 18  1  0
 18 19  1  0
 18 20  2  0
 20 21  1  0
 20 22  1  0
 22 23  1  0
 22 24  2  0
 24 25  1  0
 25 26  1  0
 25 30  1  0
 25 34  1  0
 26 27  1  0
 26 28  1  0
 26 29  1  0
 30 31  1  0
 30 32  1  0
 30 33  1  0
 34 35  1  0
 34 36  1  0
 34 37  1  0
 38 39  1  0
 38 40  2  0
M  END
> <intraLJ>
26.732    

> <intraEL>
-5.654    

> <intraDihe>
5.696     

> <interLJ>
0.000     

> <interEJ>
0.000     

> <gridLJ>
-0.488    

> <gridEL>
0.000     

> <totalE>
26.285    

> <LGFE>
-0.488  

> <LE>
-0.024  

> <SMILES>
Cc1ccc(C(=O)Nc2ccccc2C(C)(C)C)cn1

> <atom.dprop.GFE>
-0.1429 0.0000 0.0000 0.0000 0.1921 -0.0448 0.0000 -0.0448 0.0000 -0.0448 0.0000 0.0920 0.3060 0.0000 -0.0448 -0.0117 0.0000 -0.0117 0.0000 -0.0448 0.0000 -0.0716 0.0000 -0.0716 -0.1838 -0.1838 0.0000 0.0000 0.0000 -0.2118 0.0000 0.0000 0.0000 -0.2118 0.0000 0.0000 0.0000 0.1921 0.0000 0.0540

> <atom.prop.CLASS>
PRPC NCLA NCLA NCLA GEHC BENC NCLA BENC NCLA BENC NCLA GENA GEND NCLA BENC BENC NCLA BENC NCLA BENC NCLA BENC NCLA BENC PRPC PRPC NCLA NCLA NCLA PRPC NCLA NCLA NCLA PRPC NCLA NCLA NCLA GEHC NCLA GENA

> <cluster_id>
1

> <rmsd_to_cluster_rep>
0.00    

> <ligRMSD>
108.95  

> <ligCOMD>
108.74  

$$$$
