31878068_1396_247
     RDKit          3D

 33 34  0  0  0  0  0  0  0  0999 V2000
   45.8020   50.8735   89.6435 C   0  0  0  0  0  0  0  0  0  0  0  0
   46.7943   50.8444   90.1429 H   0  0  0  0  0  0  0  0  0  0  0  0
   45.0455   51.2951   90.3391 H   0  0  0  0  0  0  0  0  0  0  0  0
   45.8624   51.5006   88.7286 H   0  0  0  0  0  0  0  0  0  0  0  0
   45.3736   49.4991   89.2511 C   0  0  0  0  0  0  0  0  0  0  0  0
   46.2091   48.4022   89.5471 C   0  0  0  0  0  0  0  0  0  0  0  0
   47.1523   48.5469   90.0497 H   0  0  0  0  0  0  0  0  0  0  0  0
   45.7919   47.1188   89.1734 C   0  0  0  0  0  0  0  0  0  0  0  0
   46.4183   46.2664   89.3941 H   0  0  0  0  0  0  0  0  0  0  0  0
   44.5500   46.9669   88.5322 C   0  0  0  0  0  0  0  0  0  0  0  0
   44.0702   45.6304   88.1093 C   0  0  0  0  0  0  0  0  0  0  0  0
   42.9544   45.5198   87.6085 O   0  0  0  0  0  0  0  0  0  0  0  0
   44.8964   44.5785   88.3047 N   0  0  0  0  0  0  0  0  0  0  0  0
   45.7976   44.7075   88.7089 H   0  0  0  0  0  0  0  0  0  0  0  0
   44.5009   43.2023   88.1462 C   0  0  0  0  0  0  0  0  0  0  0  0
   43.5781   42.9718   88.7244 H   0  0  0  0  0  0  0  0  0  0  0  0
   44.2650   43.0318   87.0718 H   0  0  0  0  0  0  0  0  0  0  0  0
   45.6303   42.2437   88.5621 C   0  0  0  0  0  0  0  0  0  0  0  0
   45.9031   42.4220   89.6247 H   0  0  0  0  0  0  0  0  0  0  0  0
   46.5253   42.4779   87.9425 H   0  0  0  0  0  0  0  0  0  0  0  0
   45.2695   40.7920   88.3731 C   0  0  0  0  0  0  0  0  0  0  0  0
   45.7683   39.9303   87.4273 C   0  0  0  0  0  0  0  0  0  0  0  0
   46.5244   40.1039   86.6722 H   0  0  0  0  0  0  0  0  0  0  0  0
   45.0113   38.4104   87.5778 S   0  0  0  0  0  0  0  0  0  0  0  0
   44.0641   38.9872   88.8658 C   0  0  0  0  0  0  0  0  0  0  0  0
   43.0761   38.0863   89.5519 C   0  0  0  0  0  0  0  0  0  0  0  0
   42.5470   38.6271   90.3659 H   0  0  0  0  0  0  0  0  0  0  0  0
   43.6043   37.2118   89.9886 H   0  0  0  0  0  0  0  0  0  0  0  0
   42.3259   37.7215   88.8182 H   0  0  0  0  0  0  0  0  0  0  0  0
   44.2682   40.2542   89.2051 N   0  0  0  0  0  0  0  0  0  0  0  0
   43.7979   48.1295   88.2729 C   0  0  0  0  0  0  0  0  0  0  0  0
   42.8467   48.0650   87.7595 H   0  0  0  0  0  0  0  0  0  0  0  0
   44.2092   49.3429   88.6285 N   0  0  0  0  0  0  0  0  0  0  0  0
  1  2  1  0
  1  3  1  0
  1  4  1  0
  1  5  1  0
  5  6  2  0
  5 33  1  0
  6  7  1  0
  6  8  1  0
  8  9  1  0
  8 10  2  0
 10 11  1  0
 10 31  1  0
 11 12  2  0
 11 13  1  0
 13 14  1  0
 13 15  1  0
 15 16  1  0
 15 17  1  0
 15 18  1  0
 18 19  1  0
 18 20  1  0
 18 21  1  0
 21 22  2  0
 21 30  1  0
 22 23  1  0
 22 24  1  0
 24 25  1  0
 25 26  1  0
 25 30  2  0
 26 27  1  0
 26 28  1  0
 26 29  1  0
 31 32  1  0
 31 33  2  0
M  END
> <intraLJ>
11.857    

> <intraEL>
-7.838    

> <intraDihe>
1.931     

> <interLJ>
0.000     

> <interEJ>
0.000     

> <gridLJ>
0.605     

> <gridEL>
0.000     

> <totalE>
6.555     

> <LGFE>
0.605   

> <LE>
0.034   

> <SMILES>
Cc1ccc(C(=O)NCCc2csc(C)n2)cn1

> <atom.dprop.GFE>
-0.1838 0.0000 0.0000 0.0000 0.2141 -0.0922 0.0000 -0.0716 0.0000 -0.0448 0.0000 0.0920 0.3060 0.0000 -0.0892 0.0000 0.0000 -0.1429 0.0000 0.0000 0.1921 0.1838 0.0000 -0.0892 0.2141 -0.1838 0.0000 0.0000 0.0000 0.0540 0.1921 0.0000 0.0540

> <atom.prop.CLASS>
PRPC NCLA NCLA NCLA GEHC BENC NCLA BENC NCLA BENC NCLA GENA GEND NCLA PRPC NCLA NCLA PRPC NCLA NCLA GEHC GEHC NCLA PRPC GEHC PRPC NCLA NCLA NCLA GENA GEHC NCLA GENA

> <cluster_id>
1

> <rmsd_to_cluster_rep>
0.00    

> <ligRMSD>
109.09  

> <ligCOMD>
108.90  

$$$$
