31919176_1885_360
     RDKit          3D

 36 37  0  0  0  0  0  0  0  0999 V2000
   49.0299   42.9342   89.0047 C   0  0  0  0  0  0  0  0  0  0  0  0
   49.3990   43.0954   90.0405 H   0  0  0  0  0  0  0  0  0  0  0  0
   49.8080   43.2491   88.2773 H   0  0  0  0  0  0  0  0  0  0  0  0
   48.7892   41.8600   88.8565 H   0  0  0  0  0  0  0  0  0  0  0  0
   47.7958   43.7363   88.7579 C   0  0  0  0  0  0  0  0  0  0  0  0
   47.2772   44.5430   89.7922 C   0  0  0  0  0  0  0  0  0  0  0  0
   47.7661   44.5915   90.7522 H   0  0  0  0  0  0  0  0  0  0  0  0
   46.1077   45.2742   89.5515 C   0  0  0  0  0  0  0  0  0  0  0  0
   45.6885   45.8950   90.3303 H   0  0  0  0  0  0  0  0  0  0  0  0
   45.4965   45.1777   88.2917 C   0  0  0  0  0  0  0  0  0  0  0  0
   44.2584   45.9327   87.9910 C   0  0  0  0  0  0  0  0  0  0  0  0
   44.3195   46.7377   87.0671 O   0  0  0  0  0  0  0  0  0  0  0  0
   43.1272   45.6974   88.7295 N   0  0  0  0  0  0  0  0  0  0  0  0
   41.9773   46.5766   88.6282 C   0  0  0  0  0  0  0  0  0  0  0  0
   41.1320   45.9758   88.2310 H   0  0  0  0  0  0  0  0  0  0  0  0
   42.1921   47.4394   87.9603 H   0  0  0  0  0  0  0  0  0  0  0  0
   41.7539   46.9347   89.6558 H   0  0  0  0  0  0  0  0  0  0  0  0
   42.9606   44.5432   89.6145 C   0  0  0  0  0  0  0  0  0  0  0  0
   43.6217   44.6828   90.4985 H   0  0  0  0  0  0  0  0  0  0  0  0
   41.9192   44.5395   90.0055 H   0  0  0  0  0  0  0  0  0  0  0  0
   43.2115   43.1950   88.9811 C   0  0  0  0  0  0  0  0  0  0  0  0
   42.5648   42.6732   87.8543 C   0  0  0  0  0  0  0  0  0  0  0  0
   41.5611   43.3685   86.9809 C   0  0  0  0  0  0  0  0  0  0  0  0
   42.0147   44.2834   86.5435 H   0  0  0  0  0  0  0  0  0  0  0  0
   40.6743   43.6607   87.5817 H   0  0  0  0  0  0  0  0  0  0  0  0
   41.2261   42.7067   86.1529 H   0  0  0  0  0  0  0  0  0  0  0  0
   42.9410   41.4312   87.5882 N   0  0  0  0  0  0  0  0  0  0  0  0
   43.8660   41.1058   88.5844 O   0  0  0  0  0  0  0  0  0  0  0  0
   44.0043   42.1823   89.4044 C   0  0  0  0  0  0  0  0  0  0  0  0
   44.9634   41.9982   90.5483 C   0  0  0  0  0  0  0  0  0  0  0  0
   45.0855   42.9417   91.1183 H   0  0  0  0  0  0  0  0  0  0  0  0
   45.9572   41.6881   90.1606 H   0  0  0  0  0  0  0  0  0  0  0  0
   44.5840   41.2122   91.2357 H   0  0  0  0  0  0  0  0  0  0  0  0
   46.1098   44.3751   87.3132 C   0  0  0  0  0  0  0  0  0  0  0  0
   45.6687   44.2809   86.3291 H   0  0  0  0  0  0  0  0  0  0  0  0
   47.2093   43.6696   87.5655 N   0  0  0  0  0  0  0  0  0  0  0  0
  1  2  1  0
  1  3  1  0
  1  4  1  0
  1  5  1  0
  5  6  2  0
  5 36  1  0
  6  7  1  0
  6  8  1  0
  8  9  1  0
  8 10  2  0
 10 11  1  0
 10 34  1  0
 11 12  2  0
 11 13  1  0
 13 14  1  0
 13 18  1  0
 14 15  1  0
 14 16  1  0
 14 17  1  0
 18 19  1  0
 18 20  1  0
 18 21  1  0
 21 22  1  0
 21 29  2  0
 22 23  1  0
 22 27  2  0
 23 24  1  0
 23 25  1  0
 23 26  1  0
 27 28  1  0
 28 29  1  0
 29 30  1  0
 30 31  1  0
 30 32  1  0
 30 33  1  0
 34 35  1  0
 34 36  2  0
M  END
> <intraLJ>
11.759    

> <intraEL>
-8.695    

> <intraDihe>
17.262    

> <interLJ>
0.000     

> <interEJ>
0.000     

> <gridLJ>
0.688     

> <gridEL>
0.000     

> <totalE>
21.013    

> <LGFE>
0.688   

> <LE>
0.036   

> <SMILES>
Cc1ccc(C(=O)N(C)Cc2c(C)noc2C)cn1

> <atom.dprop.GFE>
-0.1429 0.0000 0.0000 0.0000 0.2141 -0.0922 0.0000 -0.0922 0.0000 -0.0448 0.0000 0.1510 0.2141 -0.1429 0.0000 0.0000 0.0000 -0.1838 0.0000 0.0000 0.2141 0.1921 -0.0233 0.0000 0.0000 0.0000 0.0920 0.0540 0.2141 -0.2118 0.0000 0.0000 0.0000 0.1838 0.0000 0.0920

> <atom.prop.CLASS>
PRPC NCLA NCLA NCLA GEHC BENC NCLA BENC NCLA BENC NCLA GENA GEHC PRPC NCLA NCLA NCLA PRPC NCLA NCLA GEHC GEHC PRPC NCLA NCLA NCLA GENA GENA GEHC PRPC NCLA NCLA NCLA GEHC NCLA GENA

> <cluster_id>
1

> <rmsd_to_cluster_rep>
0.00    

> <ligRMSD>
108.55  

> <ligCOMD>
108.51  

$$$$
