31981950_836_398
     RDKit          3D

 41 42  0  0  0  0  0  0  0  0999 V2000
   47.4772   39.8813   86.7126 C   0  0  0  0  0  0  0  0  0  0  0  0
   47.1557   40.8373   86.2475 H   0  0  0  0  0  0  0  0  0  0  0  0
   47.2864   39.0539   85.9947 H   0  0  0  0  0  0  0  0  0  0  0  0
   48.5702   39.9295   86.9098 H   0  0  0  0  0  0  0  0  0  0  0  0
   46.7388   39.6283   87.9888 C   0  0  0  0  0  0  0  0  0  0  0  0
   46.9468   38.5912   88.6129 O   0  0  0  0  0  0  0  0  0  0  0  0
   45.8553   40.5769   88.3898 N   0  0  0  0  0  0  0  0  0  0  0  0
   45.7256   41.4004   87.8451 H   0  0  0  0  0  0  0  0  0  0  0  0
   45.0270   40.5011   89.5722 C   0  0  0  0  0  0  0  0  0  0  0  0
   44.3858   39.5907   89.5631 H   0  0  0  0  0  0  0  0  0  0  0  0
   45.6888   40.4297   90.4633 H   0  0  0  0  0  0  0  0  0  0  0  0
   44.1185   41.7433   89.7335 C   0  0  0  0  0  0  0  0  0  0  0  0
   43.5198   41.5935   90.6628 H   0  0  0  0  0  0  0  0  0  0  0  0
   44.9323   43.0415   89.9213 C   0  0  0  0  0  0  0  0  0  0  0  0
   45.5897   43.1862   89.0359 H   0  0  0  0  0  0  0  0  0  0  0  0
   45.5773   42.9510   90.8216 H   0  0  0  0  0  0  0  0  0  0  0  0
   44.0217   44.2723   90.0667 C   0  0  0  0  0  0  0  0  0  0  0  0
   44.6765   45.1643   90.1754 H   0  0  0  0  0  0  0  0  0  0  0  0
   43.4151   44.1782   90.9933 H   0  0  0  0  0  0  0  0  0  0  0  0
   43.1248   44.3442   88.9079 N   0  0  0  0  0  0  0  0  0  0  0  0
   43.0386   45.4062   88.0500 C   0  0  0  0  0  0  0  0  0  0  0  0
   42.2198   45.4859   87.1377 O   0  0  0  0  0  0  0  0  0  0  0  0
   43.9850   46.5336   88.1795 C   0  0  0  0  0  0  0  0  0  0  0  0
   45.3587   46.3511   87.9644 C   0  0  0  0  0  0  0  0  0  0  0  0
   45.7609   45.3801   87.7133 H   0  0  0  0  0  0  0  0  0  0  0  0
   46.2132   47.4521   88.1022 C   0  0  0  0  0  0  0  0  0  0  0  0
   47.2758   47.3426   87.9547 H   0  0  0  0  0  0  0  0  0  0  0  0
   45.6556   48.7052   88.4340 C   0  0  0  0  0  0  0  0  0  0  0  0
   46.5528   49.8879   88.5869 C   0  0  0  0  0  0  0  0  0  0  0  0
   47.6115   49.5991   88.4110 H   0  0  0  0  0  0  0  0  0  0  0  0
   46.4405   50.2868   89.6174 H   0  0  0  0  0  0  0  0  0  0  0  0
   46.2487   50.6607   87.8493 H   0  0  0  0  0  0  0  0  0  0  0  0
   44.3467   48.8619   88.6152 N   0  0  0  0  0  0  0  0  0  0  0  0
   43.5229   47.8251   88.4888 C   0  0  0  0  0  0  0  0  0  0  0  0
   42.4669   48.0028   88.6473 H   0  0  0  0  0  0  0  0  0  0  0  0
   42.2601   43.1747   88.7277 C   0  0  0  0  0  0  0  0  0  0  0  0
   41.6183   43.0604   89.6289 H   0  0  0  0  0  0  0  0  0  0  0  0
   41.5854   43.2647   87.8460 H   0  0  0  0  0  0  0  0  0  0  0  0
   43.1227   41.9128   88.5642 C   0  0  0  0  0  0  0  0  0  0  0  0
   42.4549   41.0278   88.4975 H   0  0  0  0  0  0  0  0  0  0  0  0
   43.6935   41.9920   87.6131 H   0  0  0  0  0  0  0  0  0  0  0  0
  1  2  1  0
  1  3  1  0
  1  4  1  0
  1  5  1  0
  5  6  2  0
  5  7  1  0
  7  8  1  0
  7  9  1  0
  9 10  1  0
  9 11  1  0
  9 12  1  0
 12 13  1  0
 12 14  1  0
 12 39  1  0
 14 15  1  0
 14 16  1  0
 14 17  1  0
 17 18  1  0
 17 19  1  0
 17 20  1  0
 20 21  1  0
 20 36  1  0
 21 22  2  0
 21 23  1  0
 23 24  2  0
 23 34  1  0
 24 25  1  0
 24 26  1  0
 26 27  1  0
 26 28  2  0
 28 29  1  0
 28 33  1  0
 29 30  1  0
 29 31  1  0
 29 32  1  0
 33 34  2  0
 34 35  1  0
 36 37  1  0
 36 38  1  0
 36 39  1  0
 39 40  1  0
 39 41  1  0
M  END
> <intraLJ>
10.807    

> <intraEL>
-9.246    

> <intraDihe>
19.551    

> <interLJ>
0.000     

> <interEJ>
0.000     

> <gridLJ>
-0.158    

> <gridEL>
0.000     

> <totalE>
20.954    

> <LGFE>
-0.158  

> <LE>
-0.008  

> <SMILES>
CC(=O)NCC1CCN(C(=O)c2ccc(C)nc2)CC1

> <atom.dprop.GFE>
-0.0233 0.0000 0.0000 0.0000 0.0000 0.0540 0.3060 0.0000 -0.1838 0.0000 0.0000 -0.1838 0.0000 -0.1838 0.0000 0.0000 -0.1838 0.0000 0.0000 0.2141 0.0000 0.1510 -0.0448 -0.0448 0.0000 -0.0448 0.0000 0.1921 -0.1429 0.0000 0.0000 0.0000 0.0540 0.1921 0.0000 -0.1429 0.0000 0.0000 -0.1429 0.0000 0.0000

> <atom.prop.CLASS>
PRPC NCLA NCLA NCLA NCLA GENA GEND NCLA PRPC NCLA NCLA PRPC NCLA PRPC NCLA NCLA PRPC NCLA NCLA GEHC NCLA GENA BENC BENC NCLA BENC NCLA GEHC PRPC NCLA NCLA NCLA GENA GEHC NCLA PRPC NCLA NCLA PRPC NCLA NCLA

> <cluster_id>
1

> <rmsd_to_cluster_rep>
0.00    

> <ligRMSD>
108.69  

> <ligCOMD>
108.52  

$$$$
