49139618_3223_43
     RDKit          3D

 37 38  0  0  0  0  0  0  0  0999 V2000
   42.4239   46.1384   89.9804 C   0  0  0  0  0  0  0  0  0  0  0  0
   41.5156   45.6889   89.5258 H   0  0  0  0  0  0  0  0  0  0  0  0
   42.2282   47.2134   90.1821 H   0  0  0  0  0  0  0  0  0  0  0  0
   42.6371   45.6146   90.9367 H   0  0  0  0  0  0  0  0  0  0  0  0
   43.5097   45.9989   89.0748 O   0  0  0  0  0  0  0  0  0  0  0  0
   44.7012   46.5900   89.5728 C   0  0  0  0  0  0  0  0  0  0  0  0
   44.5163   47.6752   89.7312 H   0  0  0  0  0  0  0  0  0  0  0  0
   44.9567   46.1428   90.5553 H   0  0  0  0  0  0  0  0  0  0  0  0
   45.8297   46.4620   88.5782 C   0  0  0  0  0  0  0  0  0  0  0  0
   45.9694   47.4826   87.6224 C   0  0  0  0  0  0  0  0  0  0  0  0
   45.2828   48.3169   87.6261 H   0  0  0  0  0  0  0  0  0  0  0  0
   46.9876   47.4293   86.6662 C   0  0  0  0  0  0  0  0  0  0  0  0
   47.0870   48.2204   85.9374 H   0  0  0  0  0  0  0  0  0  0  0  0
   47.8784   46.3521   86.6552 C   0  0  0  0  0  0  0  0  0  0  0  0
   48.6686   46.3112   85.9198 H   0  0  0  0  0  0  0  0  0  0  0  0
   47.7475   45.3281   87.5963 C   0  0  0  0  0  0  0  0  0  0  0  0
   48.4458   44.5037   87.5838 H   0  0  0  0  0  0  0  0  0  0  0  0
   46.7277   45.3666   88.5588 C   0  0  0  0  0  0  0  0  0  0  0  0
   46.6609   44.2526   89.5712 C   0  0  0  0  0  0  0  0  0  0  0  0
   46.8597   44.6395   90.5959 H   0  0  0  0  0  0  0  0  0  0  0  0
   47.4620   43.5230   89.3229 H   0  0  0  0  0  0  0  0  0  0  0  0
   45.3845   43.5910   89.5202 O   0  0  0  0  0  0  0  0  0  0  0  0
   45.1840   42.7277   88.5224 C   0  0  0  0  0  0  0  0  0  0  0  0
   45.9948   42.4273   87.6641 O   0  0  0  0  0  0  0  0  0  0  0  0
   43.8151   42.1340   88.5624 C   0  0  0  0  0  0  0  0  0  0  0  0
   42.9167   42.4893   89.5827 C   0  0  0  0  0  0  0  0  0  0  0  0
   43.2076   43.1835   90.3570 H   0  0  0  0  0  0  0  0  0  0  0  0
   41.6362   41.9228   89.5926 C   0  0  0  0  0  0  0  0  0  0  0  0
   40.9305   42.1746   90.3683 H   0  0  0  0  0  0  0  0  0  0  0  0
   41.2895   41.0186   88.5667 C   0  0  0  0  0  0  0  0  0  0  0  0
   39.9307   40.4034   88.5600 C   0  0  0  0  0  0  0  0  0  0  0  0
   39.3353   40.7651   89.4258 H   0  0  0  0  0  0  0  0  0  0  0  0
   40.0416   39.2997   88.6174 H   0  0  0  0  0  0  0  0  0  0  0  0
   39.4208   40.6814   87.6131 H   0  0  0  0  0  0  0  0  0  0  0  0
   42.1440   40.6973   87.5998 N   0  0  0  0  0  0  0  0  0  0  0  0
   43.3625   41.2261   87.5836 C   0  0  0  0  0  0  0  0  0  0  0  0
   44.0198   40.9353   86.7742 H   0  0  0  0  0  0  0  0  0  0  0  0
  1  2  1  0
  1  3  1  0
  1  4  1  0
  1  5  1  0
  5  6  1  0
  6  7  1  0
  6  8  1  0
  6  9  1  0
  9 10  2  0
  9 18  1  0
 10 11  1  0
 10 12  1  0
 12 13  1  0
 12 14  2  0
 14 15  1  0
 14 16  1  0
 16 17  1  0
 16 18  2  0
 18 19  1  0
 19 20  1  0
 19 21  1  0
 19 22  1  0
 22 23  1  0
 23 24  2  0
 23 25  1  0
 25 26  2  0
 25 36  1  0
 26 27  1  0
 26 28  1  0
 28 29  1  0
 28 30  2  0
 30 31  1  0
 30 35  1  0
 31 32  1  0
 31 33  1  0
 31 34  1  0
 35 36  2  0
 36 37  1  0
M  END
> <intraLJ>
23.226    

> <intraEL>
0.418     

> <intraDihe>
4.354     

> <interLJ>
0.000     

> <interEJ>
0.000     

> <gridLJ>
-0.508    

> <gridEL>
0.000     

> <totalE>
27.490    

> <LGFE>
-0.508  

> <LE>
-0.025  

> <SMILES>
COCc1ccccc1COC(=O)c1ccc(C)nc1

> <atom.dprop.GFE>
-0.1838 0.0000 0.0000 0.0000 0.0540 -0.1838 0.0000 0.0000 -0.0716 -0.0448 0.0000 -0.0117 0.0000 -0.0117 0.0000 -0.0448 0.0000 -0.0716 -0.1838 0.0000 0.0000 0.0540 0.0000 0.0920 -0.0716 -0.0922 0.0000 -0.0922 0.0000 0.2141 -0.1429 0.0000 0.0000 0.0000 0.0920 0.1921 0.0000

> <atom.prop.CLASS>
PRPC NCLA NCLA NCLA GENA PRPC NCLA NCLA BENC BENC NCLA BENC NCLA BENC NCLA BENC NCLA BENC PRPC NCLA NCLA GENA NCLA GENA BENC BENC NCLA BENC NCLA GEHC PRPC NCLA NCLA NCLA GENA GEHC NCLA

> <cluster_id>
1

> <rmsd_to_cluster_rep>
0.00    

> <ligRMSD>
108.71  

> <ligCOMD>
108.50  

$$$$
